
*** ChampSim Multicore Out-of-Order Simulator ***

Warmup Instructions: 1000000
Simulation Instructions: 10000000
Number of CPUs: 1
LLC sets: 2048
LLC ways: 16
Off-chip DRAM Size: 4096 MB Channels: 1 Width: 64-bit Data Rate: 3200 MT/s

CPU 0 runs /home/light/7th-Sem/cs622/project/ChampSim/dpc3_traces/600.perlbench_s-210B.champsimtrace.xz
0:16:4
-1:-1
2:3:3
0:-1
5:2:3
1:-1
1:1:3
-1:-1
6:1:2
1:-1
1:1:2
-1:-1
0:1:1
-1:-1
0:1:1
-1:-1
3:19:1
0:-1
9:14:1
2:-1
1:11:1
-1:-1
0:1:1
-1:-1
0:1:1
-1:-1
2:2:1
0:-1
0:7:1
-1:-1
0:1:1
-1:-1
0:1:1
-1:-1
0:1:1
-1:-1
0:0:1
-1:-1
2:2:1
0:-1
0:1:1
-1:-1
4:1:1
1:-1
5:1:1
1:1
0:0:2
-1:-1
2:1:1
0:-1
3:1:1
0:1
0:0:2
-1:-1
2:2:1
0:-1
3:1:1
0:1
4:1:2
1:0
0:1:3
-1:-1
0:1:2
-1:-1
6:2:1
1:-1
0:2:1
-1:1
0:1:1
-1:-1
8:1:1
2:-1
9:1:1
2:1
9:1:3
2:0
9:1:4
2:0
9:1:5
2:-1
0:0:5
-1:-1
8:1:4
2:-1
0:5:4
-1:1
0:0:4
-1:-1
2:0:3
0:-1
2:3:3
0:0
3:1:3
0:0
0:2:3
-1:-1
0:0:2
-1:-1
1:4:1
-1:-1
0:1:1
-1:-1
2:0:1
0:-1
3:1:1
0:-1
1:2:1
-1:-1
3:1:1
0:-1
4:1:1
1:1
0:1:2
-1:-1
0:0:1
-1:-1
4:7:1
1:-1
3:17:1
0:-1
6:6:1
1:-1
0:3:1
-1:-1
0:19:1
-1:-1
5:16:1
1:-1
1:21:1
-1:1
0:15:1
-1:-1
0:13:1
-1:-1
0:0:1
-1:-1
10:17:1
2:-1
0:7:1
-1:-1
9:11:1
2:-1
1:2:1
-1:1
1:4:1
-1:1
0:2:1
-1:-1
11:11:1
2:-1
1:8:1
-1:-1
0:5:1
-1:-1
0:6:1
-1:-1
0:8:1
-1:-1
0:3:1
-1:-1
0:10:1
-1:-1
11:9:1
2:-1
12:8:1
2:1
0:7:3
-1:-1
0:13:2
-1:0
8:6:1
2:-1
5:6:1
1:1
0:10:2
-1:0
0:22:1
-1:-1
3:16:1
0:-1
0:13:1
-1:-1
0:20:1
-1:-1
0:7:1
-1:-1
2:2:1
0:1
0:1:2
-1:-1
0:1:1
-1:-1
0:2:1
-1:1
0:1:1
-1:-1
2:3:1
0:1
2:3:2
0:-1
3:1:2
0:0
4:1:2
1:0
0:1:3
-1:-1
5:3:2
1:-1
6:1:2
1:0
0:1:3
-1:-1
0:1:2
-1:-1
2:2:1
0:1
0:1:2
-1:-1
4:2:1
1:-1
5:1:1
1:-1
0:0:1
-1:-1
0:2:1
-1:-1
2:2:1
0:1
3:1:2
0:0
4:1:2
1:0
5:1:3
1:0
6:1:4
1:0
7:1:5
1:-1
8:1:5
2:-1
0:1:5
-1:-1
0:2:4
-1:-1
11:2:3
2:-1
0:0:3
-1:-1
2:2:2
0:1
0:1:3
-1:-1
3:1:2
0:-1
4:1:2
1:0
5:1:3
1:0
6:1:4
1:0
0:1:5
-1:-1
7:1:4
1:-1
8:1:4
2:0
9:1:5
2:-1
0:0:5
-1:-1
1:1:4
-1:0
10:1:3
2:-1

Warmup complete CPU 0 instructions: 1000004 cycles: 512253 (Simulation time: 0 hr 0 min 2 sec) 

0:1:3
-1:-1
0:1:2
-1:-1
0:3:1
-1:-1
0:2:1
-1:1
0:1:1
-1:-1
2:2:1
0:1
3:1:2
0:0
0:1:2
-1:-1
0:0:1
-1:-1
0:0:1
-1:-1
0:1:1
-1:-1
1:2:1
-1:1
2:1:1
0:1
3:1:2
0:0
4:1:2
1:0
0:1:3
-1:-1
0:1:2
-1:-1
0:2:1
-1:-1
0:1:1
-1:-1
0:1:1
-1:-1
1:2:1
-1:1
0:2:1
-1:1
0:1:1
-1:-1
0:2:1
-1:-1
0:0:1
-1:-1
1:1:1
-1:-1
0:0:1
-1:-1
2:2:1
0:1
0:1:2
-1:-1
0:0:1
-1:-1
1:1:1
-1:-1
0:1:1
-1:-1
1:1:1
-1:1
2:1:1
0:1
3:1:2
0:0
0:1:2
-1:-1
0:1:1
-1:-1
1:1:1
-1:-1
4:3:1
1:1
4:1:2
1:0
4:1:3
1:0
4:1:4
1:0
4:1:5
1:-1
0:0:5
-1:-1
0:0:4
-1:-1
0:2:3
-1:0
0:3:2
-1:0
6:1:1
1:-1
7:1:1
1:1
8:1:2
2:0
8:1:3
2:0
0:1:4
-1:-1
7:1:3
1:-1
7:1:3
1:0
7:1:4
1:0
0:1:5
-1:-1
2:3:4
0:0
2:2:4
0:-1
3:1:4
0:0
4:1:4
1:0
5:1:5
1:-1
6:1:5
1:-1
7:1:5
1:-1
8:1:5
2:-1
9:1:5
2:-1
10:1:5
2:-1
11:1:5
2:-1
12:1:5
2:-1
0:1:5
-1:-1
13:3:4
2:0
0:1:5
-1:-1
12:1:4
2:-1
0:1:4
-1:-1
10:2:3
2:-1
10:2:3
2:0
10:2:4
2:0
0:1:5
-1:-1
0:2:4
-1:-1
1:1:3
-1:0
0:1:2
-1:-1
0:2:1
-1:-1
2:4:1
0:1
3:1:2
0:0
4:1:2
1:-1
5:1:2
1:0
6:1:3
1:0
7:1:4
1:0
8:1:5
2:-1
9:1:5
2:-1
10:1:5
2:-1
11:1:5
2:-1
12:1:5
2:-1
0:1:5
-1:-1
13:2:4
2:0
13:1:5
2:-1
0:1:5
-1:-1
11:1:4
2:-1
0:1:4
-1:-1
0:3:3
-1:-1
0:1:2
-1:-1
0:1:1
-1:-1
0:3:1
-1:1
4:2:1
1:-1
0:1:1
-1:-1
0:3:1
-1:-1
0:2:1
-1:1
2:1:1
0:-1
0:1:1
-1:-1
1:4:1
-1:-1
0:2:1
-1:-1
1:15:1
-1:-1
0:18:1
-1:1
2:0:1
0:-1
1:8:1
-1:-1
0:5:1
-1:1
0:2:1
-1:-1
0:18:1
-1:-1
5:4:1
1:-1
2:2:1
0:-1
2:0:1
0:-1
0:6:1
-1:-1
1:4:1
-1:-1
0:5:1
-1:-1
2:3:1
0:-1
0:4:1
-1:-1
0:4:1
-1:1
0:2:1
-1:1
0:2:1
-1:1
0:2:1
-1:1
7:4:1
1:1
0:4:2
-1:-1
5:1:1
1:-1
3:2:1
0:-1
6:3:1
1:-1
1:2:1
-1:-1
0:4:1
-1:1
0:2:1
-1:1
5:6:1
1:-1
0:2:1
-1:1
4:4:1
1:1
8:4:2
2:1
0:2:4
-1:0
4:4:3
1:1
0:3:4
-1:0
7:1:3
1:-1
0:2:3
-1:0
0:3:2
-1:-1
0:2:1
-1:1
3:3:1
0:1
0:2:2
-1:0
0:3:1
-1:-1
0:1:1
-1:-1
3:3:1
0:1
0:2:2
-1:0
0:1:1
-1:-1
0:2:1
-1:-1
3:3:1
0:1
0:2:2
-1:0
0:2:1
-1:1
0:3:1
-1:1
0:2:1
-1:1
0:2:1
-1:1
0:4:1
-1:1
4:3:1
1:-1
6:2:1
1:1
0:1:2
-1:-1
0:2:1
-1:1
1:3:1
-1:1
5:4:1
1:-1
8:3:1
2:1
0:2:3
-1:0
1:2:2
-1:-1
4:5:1
1:-1
7:3:1
1:1
10:3:2
2:1
0:1:4
-1:-1
13:3:3
2:-1
0:3:3
-1:0
10:2:2
2:-1
10:2:2
2:0
0:4:3
-1:0
2:3:2
0:-1
0:3:2
-1:-1
4:6:1
1:1
7:3:2
1:1
0:2:3
-1:0
0:5:2
-1:0
0:3:1
-1:-1
0:1:1
-1:-1
7:2:1
1:-1
7:2:1
1:1
0:1:2
-1:-1
0:2:1
-1:1
0:1:1
-1:-1
5:1:1
1:-1
0:1:1
-1:-1
2:3:1
0:-1
0:4:1
-1:-1
0:13:1
-1:-1
0:9:1
-1:1
0:0:1
-1:-1
5:0:1
1:-1
8:9:1
2:-1
0:3:1
-1:-1
0:2:1
-1:1
0:15:1
-1:-1
0:3:1
-1:-1
2:1:1
0:-1
2:6:1
0:-1
3:3:1
0:-1
0:9:1
-1:-1
2:6:1
0:1
0:3:2
-1:-1
0:4:1
-1:1
0:1:1
-1:-1
0:3:1
-1:1
0:1:1
-1:-1
0:2:1
-1:1
2:1:1
0:-1
1:3:1
-1:-1
3:2:1
0:1
0:4:2
-1:0
0:1:1
-1:-1
2:2:1
0:-1
4:2:1
1:1
5:1:2
1:0
7:2:3
1:0
0:1:4
-1:-1
2:2:3
0:0
3:1:3
0:0
5:2:3
1:0
0:2:4
-1:0
2:2:3
0:0
0:3:3
-1:0
0:3:2
-1:-1
4:1:1
1:-1
0:1:1
-1:-1
0:1:1
-1:-1
0:1:1
-1:-1
0:2:1
-1:1
0:2:1
-1:1
2:2:1
0:1
4:2:2
1:1
0:2:3
-1:0
0:4:2
-1:-1
0:2:1
-1:1
0:1:1
-1:-1
0:3:1
-1:1
0:1:1
-1:-1
2:2:1
0:1
4:2:2
1:1
0:2:3
-1:0
0:3:2
-1:0
6:4:1
1:1
0:2:2
-1:0
6:2:1
1:1
0:1:2
-1:-1
1:1:1
-1:-1
3:2:1
0:1
0:1:2
-1:-1
0:1:1
-1:-1
0:2:1
-1:1
2:2:1
0:1
0:1:2
-1:-1
1:1:1
-1:-1
0:3:1
-1:1
4:2:1
1:1
5:1:2
1:0
0:1:3
-1:-1
0:1:2
-1:-1
0:2:1
-1:1
0:1:1
-1:-1
5:4:1
1:-1
5:1:1
1:-1
5:2:1
1:1
7:2:2
1:1
0:1:3
-1:-1
0:2:2
-1:-1
0:2:1
-1:-1
2:2:1
0:1
3:1:2
0:-1
5:2:2
1:1
7:2:3
1:0
9:2:4
2:0
10:1:5
2:-1
12:2:5
2:-1
0:1:5
-1:-1
14:2:4
2:-1
0:1:4
-1:-1
0:1:3
-1:-1
1:2:2
-1:0
0:3:1
-1:1
3:4:1
0:-1
5:2:1
1:1
6:1:2
1:-1
0:1:2
-1:-1
8:3:1
2:1
0:2:3
-1:0
0:3:2
-1:-1
0:1:1
-1:-1
6:3:1
1:-1
6:2:1
1:1
0:1:2
-1:-1
0:2:1
-1:1
3:3:1
0:-1
0:2:1
-1:1
2:6:1
0:-1
0:2:1
-1:-1
0:10:1
-1:-1
0:18:1
-1:1
1:2:1
-1:-1
0:0:1
-1:-1
0:2:1
-1:-1
0:2:1
-1:-1
3:3:1
0:-1
4:2:1
1:-1
0:8:1
-1:-1
0:2:1
-1:-1
0:1:1
-1:-1
2:18:1
0:1
6:2:2
1:-1
0:2:2
-1:-1
4:4:1
1:1
3:2:2
0:-1
0:15:2
-1:0
2:8:1
0:1
1:0:2
-1:-1
0:3:1
-1:-1
0:4:1
-1:1
0:2:1
-1:1
1:1:1
-1:-1
0:1:1
-1:-1
1:3:1
-1:1
0:1:1
-1:-1
0:1:1
-1:-1
0:1:1
-1:-1
0:1:1
-1:-1
0:1:1
-1:-1
1:1:1
-1:-1
1:3:1
-1:1
1:1:1
-1:-1
0:1:1
-1:-1
0:1:1
-1:-1
0:3:1
-1:-1
2:1:1
0:-1
0:1:1
-1:-1
3:1:1
0:-1
4:1:1
1:1
5:1:2
1:0
1:1:3
-1:-1
2:1:2
0:-1
0:1:2
-1:-1
6:2:1
1:1
0:1:2
-1:-1
6:1:1
1:-1
0:1:1
-1:-1
0:1:1
-1:-1
2:2:1
0:1
3:1:2
0:0
4:1:2
1:0
5:1:3
1:0
6:1:4
1:0
2:1:5
0:-1
0:3:5
-1:0
0:1:4
-1:-1
1:1:3
-1:0
2:1:2
0:0
3:1:2
0:0
4:1:2
1:0
5:1:3
1:0
0:1:4
-1:-1
6:1:3
1:-1
7:1:3
1:0
8:1:4
2:0
9:1:5
2:-1
0:1:5
-1:-1
1:1:4
-1:0
0:1:3
-1:-1
0:1:2
-1:-1
2:1:1
0:-1
3:1:1
0:1
4:1:2
1:0
5:1:3
1:0
6:1:4
1:0
0:1:5
-1:-1
0:1:4
-1:-1
7:1:3
1:-1
0:1:3
-1:-1
0:1:2
-1:-1
0:2:1
-1:1
0:2:1
-1:1
0:1:1
-1:-1
1:1:1
-1:1
2:1:1
0:1
3:1:2
0:0
4:1:2
1:0
0:1:3
-1:-1
0:2:2
-1:0
0:2:1
-1:-1
0:1:1
-1:-1
1:1:1
-1:1
2:1:1
0:1
3:1:2
0:0
4:1:2
1:0
0:1:3
-1:-1
0:1:2
-1:-1
0:2:1
-1:-1
5:2:1
1:-1
6:1:1
1:1
7:1:2
1:0
8:1:3
2:0
0:1:4
-1:-1
8:2:3
2:0
0:1:4
-1:-1
1:1:3
-1:0
2:1:2
0:0
3:1:2
0:0
0:1:2
-1:-1
4:1:1
1:-1
0:1:1
-1:-1
0:1:1
-1:-1
0:1:1
-1:-1
2:2:1
0:1
0:1:2
-1:-1
0:1:1
-1:-1
1:1:1
-1:1
2:1:1
0:1
3:1:2
0:0
4:1:2
1:0
0:1:3
-1:-1
0:2:2
-1:0
1:1:1
-1:1
2:1:1
0:1
3:1:2
0:0
4:1:2
1:0
0:1:3
-1:-1
1:1:2
-1:0
2:1:1
0:1
5:1:2
1:-1
6:1:2
1:0
7:1:3
1:0
0:1:4
-1:-1
0:2:3
-1:0
6:5:2
1:0
6:1:3
1:0
6:1:4
1:0
7:1:5
1:-1
8:1:5
2:-1
9:1:5
2:-1
9:1:5
2:-1
0:1:5
-1:-1
1:3:4
-1:-1
1:3:3
-1:0
2:1:2
0:0
3:1:2
0:0
4:1:2
1:0
5:1:3
1:0
6:1:4
1:0
7:1:5
1:-1
8:1:5
2:-1
9:1:5
2:-1
10:1:5
2:-1
11:1:5
2:-1
12:1:5
2:-1
0:1:5
-1:-1
13:2:4
2:-1
0:1:4
-1:-1
12:1:3
2:-1
12:1:3
2:0
0:1:4
-1:-1
11:2:3
2:-1
11:1:3
2:0
11:1:4
2:0
0:1:5
-1:-1
0:3:4
-1:-1
1:1:3
-1:-1
0:1:2
-1:-1
2:4:1
0:1
3:1:2
0:-1
4:1:2
1:0
0:1:3
-1:-1
5:1:2
1:-1
6:1:2
1:0
7:1:3
1:0
8:1:4
2:0
9:1:5
2:-1
0:1:5
-1:-1
10:2:4
2:0
11:1:5
2:-1
12:1:5
2:-1
0:1:5
-1:-1
0:3:4
-1:-1
0:1:3
-1:-1
5:4:2
1:-1
5:1:2
1:0
5:1:3
1:0
0:1:4
-1:-1
0:2:3
-1:0
3:4:2
0:0
0:1:2
-1:-1
2:3:1
0:-1
0:6:1
-1:-1
3:22:1
0:-1
0:10:1
-1:-1
2:2:1
0:-1
0:2:1
-1:-1
0:8:1
-1:-1
0:3:1
-1:-1
0:1:1
-1:-1
4:21:1
1:1
3:2:2
0:-1
4:2:2
1:-1
2:7:2
0:0
1:5:2
-1:-1
0:8:1
-1:-1
0:6:1
-1:-1
2:4:1
0:-1
0:4:1
-1:-1
1:4:1
-1:-1
2:5:1
0:-1
0:1:1
-1:-1
0:3:1
-1:-1
0:3:1
-1:-1
0:3:1
-1:1
0:2:1
-1:-1
3:2:1
0:-1
0:1:1
-1:-1
0:3:1
-1:1
0:5:1
-1:1
0:1:1
-1:-1
0:4:1
-1:1
0:4:1
-1:1
0:2:1
-1:1
0:1:1
-1:-1
4:2:1
1:1
0:1:2
-1:-1
2:2:1
0:1
0:3:2
-1:1
0:4:2
-1:0
4:1:1
1:-1
0:1:1
-1:-1
0:2:1
-1:1
0:1:1
-1:-1
0:2:1
-1:-1
0:2:1
-1:1
0:3:1
-1:-1
0:2:1
-1:-1
0:2:1
-1:-1
0:1:1
-1:-1
0:3:1
-1:-1
0:1:1
-1:-1
1:3:1
-1:1
0:1:1
-1:-1
0:1:1
-1:-1
0:3:1
-1:1
0:2:1
-1:1
0:2:1
-1:1
0:3:1
-1:1
0:3:1
-1:-1
2:3:1
0:1
0:5:2
-1:-1
0:1:1
-1:-1
3:3:1
0:1
0:1:2
-1:-1
0:2:1
-1:1
0:2:1
-1:-1
0:2:1
-1:1
0:3:1
-1:1
0:1:1
-1:-1
0:2:1
-1:-1
0:2:1
-1:1
0:3:1
-1:1
0:5:1
-1:-1
0:4:1
-1:-1
1:17:1
-1:-1
0:4:1
-1:-1
0:2:1
-1:-1
2:1:1
0:-1
5:0:1
1:-1
6:11:1
1:-1
2:2:1
0:-1
0:3:1
-1:1
0:15:1
-1:-1
3:3:1
0:-1
3:3:1
0:-1
2:4:1
0:-1
2:8:1
0:-1
0:2:1
-1:-1
4:10:1
1:-1
0:4:1
-1:-1
0:4:1
-1:1
1:2:1
-1:1
0:4:1
-1:-1
0:3:1
-1:1
1:3:1
-1:-1
5:4:1
1:1
8:3:2
2:1
0:1:4
-1:-1
2:3:3
0:-1
5:3:3
1:1
7:2:4
1:0
0:1:5
-1:-1
3:3:4
0:0
5:2:4
1:0
0:6:5
-1:1
2:2:5
0:0
4:2:5
1:0
6:2:6
1:0
8:2:7
2:0
0:1:8
-1:-1
0:1:7
-1:-1
0:2:6
-1:-1
0:2:5
-1:-1
1:2:4
-1:-1
4:3:3
1:1
0:1:4
-1:-1
1:2:3
-1:-1
0:1:2
-1:-1
0:2:1
-1:1
2:2:1
0:1
4:2:2
1:1
6:2:3
1:0
0:1:4
-1:-1
1:2:3
-1:-1
8:2:2
2:-1
0:4:2
-1:1
11:1:2
2:-1
0:1:2
-1:-1
2:2:1
0:1
0:1:2
-1:-1
0:2:1
-1:1
0:2:1
-1:1
2:2:1
0:1
4:2:2
1:0
0:1:3
-1:-1
2:2:2
0:1
4:2:3
1:0
0:2:4
-1:0
6:2:3
1:0
8:2:4
2:0
10:2:5
2:0
0:0:6
-1:-1
0:1:5
-1:-1
0:2:4
-1:0
0:1:3
-1:-1
8:3:2
2:-1
9:2:2
2:1
10:2:4
2:0
0:2:5
-1:-1
1:2:4
-1:0
3:4:3
0:-1
5:2:3
1:0
7:2:4
1:0
9:2:5
2:0
11:2:6
2:0
0:2:7
-1:-1
13:4:6
2:-1
13:2:6
2:0
13:2:7
2:0
0:1:8
-1:-1
12:2:7
2:-1
0:4:7
-1:0
1:2:6
-1:-1
1:3:5
-1:0
0:2:4
-1:0
0:2:3
-1:0
1:1:2
-1:-1
3:2:1
0:1
5:2:2
1:1
7:2:3
1:0
9:2:4
2:0
10:1:5
2:-1
12:2:5
2:0
0:3:6
-1:-1
0:2:5
-1:-1
9:2:4
2:-1
9:2:4
2:0
0:1:5
-1:-1
0:2:4
-1:0
3:4:3
0:0
5:2:3
1:0
0:1:4
-1:-1
0:6:3
-1:-1
2:2:2
0:0
0:26:2
-1:-1
0:4:1
-1:-1
5:2:1
1:-1
0:6:1
-1:-1
3:1:1
0:-1
1:6:1
-1:-1
3:6:1
0:-1
2:1:1
0:-1
4:1:1
1:-1
0:6:1
-1:1
0:5:1
-1:-1
0:2:1
-1:-1
1:4:1
-1:-1
2:3:1
0:-1
0:1:1
-1:-1
2:2:1
0:-1
0:5:1
-1:1
5:6:1
1:-1
0:6:1
-1:-1
6:3:1
1:1
4:2:2
1:-1
3:1:2
0:-1
5:2:2
1:-1
3:3:2
0:-1
1:0:2
-1:-1
1:2:1
-1:1
1:2:1
-1:-1
0:3:1
-1:-1
0:1:1
-1:-1
0:2:1
-1:1
0:1:1
-1:-1
0:2:1
-1:1
2:2:1
0:1
0:0:2
-1:-1
0:1:1
-1:-1
0:2:1
-1:1
0:1:1
-1:-1
0:1:1
-1:-1
1:1:1
-1:-1
0:1:1
-1:-1
0:1:1
-1:-1
0:2:1
-1:1
0:2:1
-1:1
2:2:1
0:1
3:1:2
0:0
4:1:2
1:0
5:1:3
1:0
6:1:4
1:0
7:1:5
1:-1
0:2:5
-1:-1
0:2:4
-1:0
2:2:3
0:0
3:1:3
0:0
4:1:3
1:0
5:1:4
1:0
0:1:5
-1:-1
8:3:4
2:-1
0:3:4
-1:0
0:1:3
-1:-1
2:2:2
0:1
3:1:3
0:0
4:1:3
1:0
5:1:4
1:0
6:1:5
1:-1
7:1:5
1:-1
8:1:5
2:-1
9:1:5
2:-1
10:1:5
2:-1
0:1:5
-1:-1
2:2:4
0:0
3:1:4
0:0
0:1:4
-1:-1
4:1:3
1:-1
5:1:3
1:0
6:1:4
1:0
0:1:5
-1:-1
7:1:4
1:-1
8:1:4
2:0
9:1:5
2:-1
0:1:5
-1:-1
0:1:4
-1:-1
10:1:3
2:-1
10:1:3
2:0
0:1:4
-1:-1
0:2:3
-1:0
0:2:2
-1:0
1:1:1
-1:1
2:1:1
0:1
3:1:2
0:0
4:1:2
1:0
1:1:3
-1:-1
0:1:2
-1:-1
0:1:1
-1:-1
0:1:1
-1:-1
0:2:1
-1:1
0:2:1
-1:1
1:1:1
-1:1
2:1:1
0:1
3:1:2
0:0
4:1:2
1:0
5:1:3
1:0
0:1:4
-1:-1
0:1:3
-1:-1
1:1:2
-1:-1
6:1:1
1:-1
0:1:1
-1:-1
7:2:1
1:1
0:1:2
-1:-1
1:1:1
-1:1
2:1:1
0:1
3:1:2
0:0
0:1:2
-1:-1
0:1:1
-1:-1
0:1:1
-1:-1
0:2:1
-1:1
2:2:1
0:1
0:1:2
-1:-1
1:1:1
-1:-1
0:1:1
-1:-1
0:1:1
-1:-1
0:2:1
-1:1
0:1:1
-1:-1
1:1:1
-1:1
2:1:1
0:1
3:1:2
0:0
4:1:2
1:0
2:1:3
0:-1
0:1:3
-1:-1
2:2:2
0:1
3:1:3
0:0
5:1:3
1:-1
6:1:3
1:0
7:1:4
1:0
8:1:5
2:-1
9:1:5
2:-1
0:1:5
-1:-1
0:2:4
-1:0
0:2:3
-1:0
5:2:2
1:-1
0:1:2
-1:-1
7:2:1
1:-1
8:1:1
2:1
8:1:3
2:0
8:1:4
2:0
8:1:5
2:-1
0:1:5
-1:-1
0:3:4
-1:-1
2:1:3
0:-1
0:1:3
-1:-1
2:2:2
0:1
3:1:3
0:0
4:1:3
1:0
5:1:4
1:0
6:1:5
1:-1
7:1:5
1:-1
8:1:5
2:-1
9:1:5
2:-1
10:1:5
2:-1
11:1:5
2:-1
0:1:5
-1:-1
12:1:4
2:-1
0:1:4
-1:-1
0:1:3
-1:-1
11:2:2
2:0
11:1:3
2:0
11:1:4
2:-1
0:1:4
-1:-1
8:3:3
2:0
8:1:4
2:0
8:1:5
2:-1
8:1:5
2:-1
8:1:5
2:-1
0:1:5
-1:-1
0:2:4
-1:-1
1:1:3
-1:0
0:1:2
-1:-1
0:3:1
-1:-1
0:2:1
-1:1
2:2:1
0:1
3:1:2
0:-1
4:1:2
1:0
5:1:3
1:0
6:1:4
1:0
7:1:5
1:-1
8:1:5
2:-1
9:1:5
2:-1
10:1:5
2:-1
11:1:5
2:-1
0:2:5
-1:-1
12:1:4
2:-1
13:1:4
2:0
0:1:5
-1:-1
0:2:4
-1:0
0:3:3
-1:-1
0:1:2
-1:-1
0:1:1
-1:-1
3:3:1
0:-1
3:1:1
0:1
4:1:2
1:0
5:1:3
1:0
0:1:4
-1:-1
0:2:3
-1:0
0:2:2
-1:0
0:2:1
-1:1
4:1:1
1:-1
5:1:1
1:-1
0:1:1
-1:-1
2:12:1
0:-1
0:3:1
-1:-1
0:20:1
-1:-1
2:18:1
0:1
5:3:2
1:-1
0:10:2
-1:-1
0:6:1
-1:-1
0:3:1
-1:-1
0:17:1
-1:1
2:11:1
0:1
3:0:2
0:-1
3:6:2
0:-1
0:5:2
-1:-1
1:6:1
-1:-1
2:44:1
0:-1
0:3:1
-1:-1
0:1:1
-1:-1
0:4:1
-1:-1
0:4:1
-1:1
0:3:1
-1:-1
2:2:1
0:1
0:1:2
-1:-1
0:3:1
-1:1
1:1:1
-1:-1
0:1:1
-1:-1
0:1:1
-1:-1
0:1:1
-1:-1
0:4:1
-1:-1
2:2:1
0:1
3:1:2
0:0
0:1:2
-1:-1
4:2:1
1:-1
0:1:1
-1:-1
5:1:1
1:-1
0:1:1
-1:-1
6:1:1
1:-1
7:1:1
1:1
8:1:2
2:0
9:1:3
2:0
0:1:4
-1:-1
0:4:3
-1:0
2:1:2
0:-1
3:1:2
0:0
4:1:2
1:0
5:1:3
1:0
6:1:4
1:0
7:1:5
1:-1
0:1:5
-1:-1
8:1:4
2:-1
0:1:4
-1:-1
0:1:3
-1:-1
2:2:2
0:1
3:1:3
0:0
4:1:3
1:0
0:1:4
-1:-1
5:3:3
1:0
6:1:4
1:0
7:1:5
1:-1
8:1:5
2:-1
9:1:5
2:-1
0:1:5
-1:-1
0:1:4
-1:-1
0:1:3
-1:-1
2:2:2
0:1
4:2:3
1:0
0:1:4
-1:-1
5:1:3
1:-1
0:1:3
-1:-1
6:2:2
1:0
7:1:3
1:0
8:1:4
2:0
0:1:5
-1:-1
1:2:4
-1:-1
9:1:3
2:-1
0:1:3
-1:-1
0:1:2
-1:-1
1:2:1
-1:1
0:3:1
-1:-1
1:1:1
-1:-1
2:1:1
0:1
3:1:2
0:0
4:1:2
1:0
5:1:3
1:0
1:1:4
-1:-1
0:1:3
-1:-1
6:3:2
1:-1
7:1:2
1:0
0:1:3
-1:-1
1:2:2
-1:-1
2:1:1
0:-1
3:1:1
0:1
4:1:2
1:0
0:1:3
-1:-1
5:1:2
1:-1
0:1:2
-1:-1
6:1:1
1:-1
7:1:1
1:1
8:1:2
2:0
0:1:3
-1:-1
0:2:2
-1:-1
9:2:1
2:-1
9:1:1
2:1
9:1:3
2:0
9:1:4
2:0
0:1:5
-1:-1
8:2:4
2:0
0:1:5
-1:-1
1:1:4
-1:0
2:1:3
0:0
3:1:3
0:0
0:1:3
-1:-1
1:1:2
-1:0
0:1:1
-1:-1
1:2:1
-1:-1
2:1:1
0:1
3:1:2
0:0
4:1:2
1:0
5:1:3
1:0
0:1:4
-1:-1
0:1:3
-1:-1
1:1:2
-1:0
2:1:1
0:1
3:1:2
0:0
4:1:2
1:0
0:1:3
-1:-1
1:1:2
-1:0
2:1:1
0:1
5:1:2
1:-1
0:1:2
-1:-1
6:1:1
1:-1
7:1:1
1:1
8:1:2
2:0
9:1:3
2:0
0:1:4
-1:-1
0:1:3
-1:-1
0:1:2
-1:-1
5:4:1
1:-1
6:1:1
1:-1
7:1:1
1:1
8:1:2
2:0
8:1:3
2:0
9:1:4
2:0
9:1:5
2:-1
0:1:5
-1:-1
2:4:4
0:-1
2:3:4
0:-1
3:1:4
0:0
4:1:4
1:0
5:1:5
1:-1
6:1:5
1:-1
0:1:5
-1:-1
7:1:4
1:-1
0:1:4
-1:-1
8:1:3
2:-1
9:1:3
2:0
10:1:4
2:0
11:1:5
2:-1
0:1:5
-1:-1
11:2:4
2:-1
0:1:4
-1:-1
9:3:3
2:0
9:1:4
2:0
10:1:5
2:-1
0:1:5
-1:-1
11:2:4
2:-1
0:1:4
-1:-1
10:1:3
2:-1
10:1:3
2:0
10:1:4
2:0
0:1:5
-1:-1
0:2:4
-1:-1
1:1:3
-1:0
2:1:2
0:0
1:1:2
-1:-1
0:2:1
-1:1
2:4:1
0:1
3:1:2
0:-1
4:1:2
1:0
0:1:3
-1:-1
5:2:2
1:0
8:3:3
2:0
0:2:4
-1:0
10:1:3
2:-1
11:1:3
2:0
12:1:4
2:0
0:1:5
-1:-1
0:3:4
-1:-1
0:1:3
-1:-1
0:1:2
-1:-1
0:4:1
-1:-1
4:2:1
1:-1
5:1:1
1:1
5:1:2
1:0
0:1:3
-1:-1
0:3:2
-1:-1
4:2:1
1:-1
5:1:1
1:1
0:1:2
-1:-1
0:5:1
-1:-1
0:4:1
-1:-1
0:17:1
-1:-1
0:3:1
-1:-1
0:2:1
-1:-1
2:2:1
0:-1
5:0:1
1:-1
0:9:1
-1:-1
0:2:1
-1:-1
0:3:1
-1:-1
2:17:1
0:1
0:1:2
-1:-1
6:1:1
1:-1
0:5:1
-1:-1
0:2:1
-1:-1
0:12:1
-1:-1
4:2:1
1:1
0:2:2
-1:-1
0:4:1
-1:1
2:7:1
0:1
0:5:2
-1:-1
0:1:1
-1:-1
0:5:1
-1:1
1:4:1
-1:-1
3:2:1
0:1
5:2:2
1:0
6:1:3
1:0
7:1:4
1:0
0:2:5
-1:-1
2:2:4
0:0
4:2:4
1:0
5:1:5
1:-1
0:2:5
-1:-1
3:3:4
0:0
4:1:4
1:0
6:2:5
1:0
7:1:6
1:-1
0:2:6
-1:-1
3:4:5
0:-1
5:2:5
1:0
6:1:6
1:-1
8:2:6
2:0
0:1:7
-1:-1
0:2:6
-1:-1
9:1:5
2:-1
0:3:5
-1:0
0:1:4
-1:-1
0:2:3
-1:0
0:2:2
-1:0
3:3:1
0:1
5:2:2
1:1
0:3:3
-1:0
0:3:2
-1:-1
0:2:1
-1:1
0:1:1
-1:-1
2:2:1
0:1
4:2:2
1:1
0:2:3
-1:0
1:3:2
-1:-1
8:3:1
2:-1
0:2:1
-1:1
0:1:1
-1:-1
8:2:1
2:1
0:1:3
-1:-1
2:2:2
0:1
0:2:3
-1:0
0:2:2
-1:0
0:2:1
-1:1
0:2:1
-1:1
4:4:1
1:1
5:1:2
1:-1
0:1:2
-1:-1
1:2:1
-1:-1
0:3:1
-1:1
0:1:1
-1:-1
4:2:1
1:1
6:2:2
1:1
1:2:3
-1:0
0:2:2
-1:-1
0:3:1
-1:1
7:5:1
1:-1
8:2:1
2:1
8:1:3
2:0
0:2:4
-1:0
1:3:3
-1:-1
3:4:2
0:-1
6:3:2
1:1
9:3:3
2:0
11:2:4
2:0
0:1:5
-1:-1
0:3:4
-1:-1
11:3:3
2:-1
11:2:3
2:0
0:1:4
-1:-1
8:4:3
2:0
8:1:4
2:-1
0:1:4
-1:-1
0:2:3
-1:-1
2:2:2
0:1
1:1:3
-1:-1
0:2:2
-1:0
2:4:1
0:1
5:3:2
1:1
7:2:3
1:0
9:2:4
2:0
0:2:5
-1:-1
1:2:4
-1:-1
9:4:3
2:0
0:1:4
-1:-1
0:3:3
-1:-1
0:1:2
-1:-1
0:1:1
-1:-1
2:4:1
0:-1
4:2:1
1:1
6:2:2
1:1
0:1:3
-1:-1
0:3:2
-1:-1
0:4:1
-1:1
5:2:1
1:1
0:1:2
-1:-1
0:6:1
-1:-1
0:4:1
-1:1
0:24:1
-1:-1
0:6:1
-1:-1
2:3:1
0:-1
0:1:1
-1:-1
3:3:1
0:-1
1:1:1
-1:-1
0:0:1
-1:-1
0:3:1
-1:-1
0:3:1
-1:-1
5:2:1
1:-1
0:11:1
-1:-1
0:2:1
-1:-1
1:3:1
-1:-1
2:24:1
0:-1
0:2:1
-1:-1
0:1:1
-1:-1
0:6:1
-1:-1
0:2:1
-1:-1
0:11:1
-1:-1
0:12:1
-1:-1
2:13:1
0:-1
0:2:1
-1:-1
2:1:1
0:-1
0:2:1
-1:-1
0:4:1
-1:1
3:1:1
0:-1
1:2:1
-1:-1
0:1:1
-1:-1
0:1:1
-1:-1
0:2:1
-1:1
0:1:1
-1:-1
0:1:1
-1:-1
1:1:1
-1:-1
0:1:1
-1:-1
0:1:1
-1:-1
0:2:1
-1:1
0:1:1
-1:-1
2:4:1
0:1
0:1:2
-1:-1
0:0:1
-1:-1
3:1:1
0:-1
0:1:1
-1:-1
1:3:1
-1:1
0:1:1
-1:-1
0:1:1
-1:-1
5:2:1
1:-1
6:1:1
1:-1
0:1:1
-1:-1
6:1:1
1:-1
1:1:1
-1:-1
5:1:1
1:-1
0:1:1
-1:-1
0:1:1
-1:-1
2:2:1
0:1
3:1:2
0:0
4:1:2
1:0
5:1:3
1:0
0:1:4
-1:-1
0:2:3
-1:-1
0:2:2
-1:-1
6:3:1
1:1
7:1:2
1:0
0:1:3
-1:-1
6:2:2
1:0
6:1:3
1:0
0:1:4
-1:-1
0:2:3
-1:0
2:1:2
0:-1
4:2:2
1:1
5:1:3
1:0
6:1:4
1:0
7:1:5
1:-1
8:1:5
2:-1
9:1:5
2:-1
10:1:5
2:-1
0:1:5
-1:-1
1:1:4
-1:-1
0:2:3
-1:-1
2:3:2
0:-1
3:1:2
0:0
4:1:2
1:0
5:1:3
1:0
0:1:4
-1:-1
6:1:3
1:-1
7:1:3
1:0
8:1:4
2:0
1:1:5
-1:-1
0:2:4
-1:-1
9:1:3
2:-1
0:1:3
-1:-1
0:1:2
-1:-1
0:2:1
-1:1
0:2:1
-1:1
0:1:1
-1:-1
0:1:1
-1:-1
1:3:1
-1:-1
0:1:1
-1:-1
0:1:1
-1:-1
0:1:1
-1:-1
1:1:1
-1:1
1:1:1
-1:-1
2:1:1
0:-1
3:1:1
0:1
0:1:2
-1:-1
4:1:1
1:-1
0:1:1
-1:-1
5:1:1
1:-1
0:1:1
-1:-1
0:1:1
-1:-1
6:3:1
1:-1
0:1:1
-1:-1
1:2:1
-1:-1
2:1:1
0:1
3:1:2
0:0
4:1:2
1:0
5:1:3
1:0
6:1:4
1:0
0:1:5
-1:-1
0:1:4
-1:-1
0:1:3
-1:-1
0:1:2
-1:-1
8:2:1
2:-1
0:1:1
-1:-1
0:2:1
-1:1
1:1:1
-1:1
0:1:1
-1:-1
6:1:1
1:-1
6:1:1
1:-1
0:1:1
-1:-1
1:2:1
-1:1
4:1:1
1:-1
1:1:1
-1:-1
1:2:1
-1:-1
0:1:1
-1:-1
2:1:1
0:-1
3:2:1
0:1
4:1:2
1:0
1:1:3
-1:-1
2:3:2
0:-1
0:1:2
-1:-1
0:1:1
-1:-1
1:1:1
-1:-1
2:1:1
0:-1
0:1:1
-1:-1
0:1:1
-1:-1
1:1:1
-1:1
2:1:1
0:1
3:1:2
0:0
4:1:2
1:0
5:1:3
1:0
0:1:4
-1:-1
2:2:3
0:0
3:1:3
0:0
0:1:3
-1:-1
6:1:2
1:-1
7:1:2
1:0
8:1:3
2:0
9:1:4
2:0
10:1:5
2:-1
0:1:5
-1:-1
0:2:4
-1:0
6:4:3
1:0
0:1:4
-1:-1
7:1:3
1:-1
9:3:3
2:1
9:1:5
2:-1
9:1:5
2:-1
0:1:5
-1:-1
2:4:4
0:0
2:1:4
0:-1
2:4:4
0:0
3:1:4
0:0
0:1:4
-1:-1
5:2:3
1:-1
6:1:3
1:0
7:1:4
1:0
8:1:5
2:-1
9:1:5
2:-1
10:1:5
2:-1
11:1:5
2:-1
12:1:5
2:-1
0:1:5
-1:-1
0:2:4
-1:-1
11:3:3
2:0
12:1:4
2:0
12:1:5
2:-1
12:1:5
2:-1
12:1:5
2:-1
12:1:5
2:-1
0:5:5
-1:1
0:2:5
-1:-1
11:1:4
2:-1
12:1:4
2:0
12:1:5
2:-1
0:1:5
-1:-1
0:1:4
-1:-1
1:1:3
-1:0
0:1:2
-1:-1
0:4:1
-1:1
2:4:1
0:1
3:1:2
0:0
4:1:2
1:-1
5:1:2
1:0
6:1:3
1:0
7:1:4
1:0
8:1:5
2:-1
9:1:5
2:-1
11:2:5
2:0
12:1:6
2:-1
0:1:6
-1:-1
0:2:5
-1:-1
10:3:4
2:-1
10:1:4
2:0
10:1:5
2:-1
0:1:5
-1:-1
0:3:4
-1:-1
0:1:3
-1:-1
0:1:2
-1:-1
0:5:1
-1:-1
3:1:1
0:-1
4:1:1
1:1
4:1:2
1:0
0:1:3
-1:-1
0:2:2
-1:0
3:2:1
0:1
4:1:2
1:0
5:1:3
1:0
6:1:4
1:0
7:1:5
1:-1
0:2:5
-1:-1
0:8:4
-1:-1
0:4:3
-1:-1
0:25:2
-1:0
0:8:1
-1:-1
5:3:1
1:-1
0:15:1
-1:-1
0:3:1
-1:-1
0:8:1
-1:-1
4:19:1
1:-1
2:5:1
0:-1
0:4:1
-1:-1
3:8:1
0:-1
4:5:1
1:-1
0:9:1
-1:-1
0:3:1
-1:-1
0:4:1
-1:1
2:5:1
0:1
0:3:2
-1:-1
0:1:1
-1:-1
0:2:1
-1:1
4:4:1
1:1
6:2:2
1:1
8:2:3
2:0
10:2:4
2:0
0:1:5
-1:-1
3:3:4
0:0
6:3:4
1:0
8:2:5
2:0
0:2:6
-1:-1
3:3:5
0:0
4:1:5
1:-1
6:2:5
1:0
8:2:6
2:0
0:1:7
-1:-1
4:4:6
1:0
6:2:7
1:0
0:2:8
-1:-1
0:5:7
-1:-1
0:3:6
-1:-1
1:2:5
-1:-1
0:3:4
-1:-1
2:2:3
0:0
4:2:3
1:0
0:1:4
-1:-1
0:2:3
-1:-1
5:2:2
1:0
0:1:3
-1:-1
1:1:2
-1:0
4:3:1
1:1
0:2:2
-1:0
1:2:1
-1:-1
6:1:1
1:-1
0:2:1
-1:-1
0:3:1
-1:-1
1:3:1
-1:1
0:1:1
-1:-1
2:2:1
0:1
0:1:2
-1:-1
0:3:1
-1:1
2:2:1
0:-1
0:1:1
-1:-1
2:2:1
0:1
0:1:2
-1:-1
0:4:1
-1:1
4:2:1
1:-1
6:2:1
1:1
0:1:2
-1:-1
0:4:1
-1:1
0:1:1
-1:-1
6:4:1
1:-1
8:2:1
2:1
0:2:3
-1:0
1:2:2
-1:-1
3:4:1
0:-1
5:2:1
1:1
8:3:2
2:1
9:1:4
2:0
0:1:5
-1:-1
0:3:4
-1:-1
12:4:3
2:0
12:3:4
2:0
0:1:5
-1:-1
0:4:4
-1:-1
0:2:3
-1:-1
1:2:2
-1:0
0:3:1
-1:1
3:4:1
0:-1
8:5:1
2:1
9:1:3
2:0
0:2:4
-1:0
0:1:3
-1:-1
11:2:2
2:0
0:2:3
-1:0
0:3:2
-1:-1
0:1:1
-1:-1
7:1:1
1:-1
0:2:1
-1:1
0:2:1
-1:1
4:1:1
1:-1
6:2:1
1:1
0:2:2
-1:0
0:2:1
-1:-1
0:12:1
-1:-1
0:10:1
-1:-1
5:0:1
1:-1
0:6:1
-1:-1
2:2:1
0:-1
0:8:1
-1:-1
3:5:1
0:-1
6:0:1
1:-1
0:2:1
-1:-1
5:4:1
1:-1
0:3:1
-1:-1
1:15:1
-1:-1
0:5:1
-1:-1
0:2:1
-1:-1
0:4:1
-1:1
0:1:1
-1:-1
Heartbeat CPU 0 instructions: 10000003 cycles: 12906918 heartbeat IPC: 0.774779 cumulative IPC: 0.726119 (Simulation time: 0 hr 0 min 28 sec) 
0:2:1
-1:1
0:3:1
-1:-1
3:4:1
0:1
0:3:2
-1:1
0:1:2
-1:-1
2:3:1
0:-1
3:1:1
0:1
4:1:2
1:0
0:1:3
-1:-1
0:1:2
-1:-1
5:1:1
1:-1
0:1:1
-1:-1
3:1:1
0:-1
0:1:1
-1:-1
1:2:1
-1:1
2:3:1
0:-1
0:1:1
-1:-1
2:2:1
0:1
3:1:2
0:0
4:1:2
1:0
5:1:3
1:0
6:1:4
1:0
0:1:5
-1:-1
1:1:4
-1:0
3:2:3
0:0
4:1:3
1:0
5:1:4
1:0
6:1:5
1:-1
0:1:5
-1:-1
7:1:4
1:-1
0:1:4
-1:-1
8:1:3
2:-1
0:1:3
-1:-1
0:1:2
-1:-1
2:2:1
0:1
0:1:2
-1:-1
3:1:1
0:-1
4:1:1
1:1
5:1:2
1:0
6:1:3
1:0
7:1:4
1:0
0:1:5
-1:-1
0:1:4
-1:-1
8:1:3
2:-1
0:1:3
-1:-1
0:2:2
-1:-1
0:2:1
-1:1
1:1:1
-1:1
2:1:1
0:1
3:1:2
0:0
4:1:2
1:0
0:1:3
-1:-1
5:3:2
1:-1
0:1:2
-1:-1
0:2:1
-1:-1
0:2:1
-1:1
0:1:1
-1:-1
1:1:1
-1:1
2:1:1
0:1
3:1:2
0:0
4:1:2
1:0
5:1:3
1:0
0:1:4
-1:-1
0:2:3
-1:-1
6:1:2
1:-1
0:1:2
-1:-1
0:2:1
-1:1
1:1:1
-1:1
1:1:1
-1:-1
0:1:1
-1:-1
Finished CPU 0 instructions: 10000000 cycles: 13810339 cumulative IPC: 0.724095 (Simulation time: 0 hr 0 min 31 sec) 

CPU 0 Branch Prediction Accuracy: 97.9517% MPKI: 2.9917 Average ROB Occupancy at Mispredict: 229.289

ChampSim completed all CPUs

Region of Interest Statistics

CPU 0 cumulative IPC: 0.724095 instructions: 10000000 cycles: 13810339
L1D TOTAL     ACCESS:    4901899  HIT:    4897487  MISS:       4412
L1D LOAD      ACCESS:    1618115  HIT:    1616678  MISS:       1437
L1D RFO       ACCESS:    1846806  HIT:    1846676  MISS:        130
L1D PREFETCH  ACCESS:    1436978  HIT:    1434133  MISS:       2845
L1D WRITEBACK ACCESS:          0  HIT:          0  MISS:          0
L1D PREFETCH  REQUESTED:    1614898  ISSUED:    1609957  USEFUL:       1748  USELESS:       1476
L1D AVERAGE MISS LATENCY: 28366.1 cycles
L1I TOTAL     ACCESS:    2282124  HIT:    2281674  MISS:        450
L1I LOAD      ACCESS:    2282124  HIT:    2281674  MISS:        450
L1I RFO       ACCESS:          0  HIT:          0  MISS:          0
L1I PREFETCH  ACCESS:          0  HIT:          0  MISS:          0
L1I WRITEBACK ACCESS:          0  HIT:          0  MISS:          0
L1I PREFETCH  REQUESTED:          0  ISSUED:          0  USEFUL:          0  USELESS:          0
L1I AVERAGE MISS LATENCY: 59.1067 cycles
L2C TOTAL     ACCESS:      10667  HIT:       8543  MISS:       2124
L2C LOAD      ACCESS:       1866  HIT:       1216  MISS:        650
L2C RFO       ACCESS:        130  HIT:         42  MISS:         88
L2C PREFETCH  ACCESS:       8317  HIT:       6931  MISS:       1386
L2C WRITEBACK ACCESS:        354  HIT:        354  MISS:          0
L2C PREFETCH  REQUESTED:       8338  ISSUED:       8275  USEFUL:        365  USELESS:          1
L2C AVERAGE MISS LATENCY: 170.781 cycles
LLC TOTAL     ACCESS:       2125  HIT:          1  MISS:       2124
LLC LOAD      ACCESS:        634  HIT:          0  MISS:        634
LLC RFO       ACCESS:         88  HIT:          0  MISS:         88
LLC PREFETCH  ACCESS:       1402  HIT:          0  MISS:       1402
LLC WRITEBACK ACCESS:          1  HIT:          1  MISS:          0
LLC PREFETCH  REQUESTED:          0  ISSUED:          0  USEFUL:          0  USELESS:          0
LLC AVERAGE MISS LATENCY: 139.863 cycles
Major fault: 0 Minor fault: 379
CPU 0 L2C next line prefetcher final stats

DRAM Statistics
 CHANNEL 0
 RQ ROW_BUFFER_HIT:        747  ROW_BUFFER_MISS:       1377
 DBUS_CONGESTED:        701
 WQ ROW_BUFFER_HIT:          0  ROW_BUFFER_MISS:          0  FULL:          0

 AVG_CONGESTED_CYCLE: 3
