
*** ChampSim Multicore Out-of-Order Simulator ***

Warmup Instructions: 1000000
Simulation Instructions: 10000000
Number of CPUs: 1
LLC sets: 2048
LLC ways: 16
Off-chip DRAM Size: 4096 MB Channels: 1 Width: 64-bit Data Rate: 3200 MT/s

CPU 0 runs /home/light/7th-Sem/cs622/project/ChampSim/dpc3_traces/602.gcc_s-734B.champsimtrace.xz
0:24:4
-1:-1
4:28:3
1:-1
4:30:3
1:1
0:14:4
-1:0
7:20:3
1:-1
8:29:3
2:1
3:27:5
0:1
7:27:6
1:1
7:31:7
1:1
7:30:8
1:1
7:31:9
1:1
8:26:10
2:0
6:31:11
1:1
7:30:12
1:1
8:29:12
2:1
4:27:12
1:0
7:30:12
1:1
7:30:12
1:1
8:31:12
2:1
7:28:12
1:0
7:27:12
1:-1
6:31:12
1:1
7:30:12
1:1
7:28:12
1:1
7:29:12
1:0
7:30:12
1:1
8:30:12
2:1
8:30:12
2:1
2:26:12
0:1
8:31:12
2:1
8:30:12
2:1
7:30:12
1:1
7:29:12
1:-1
8:29:12
2:-1
7:30:12
1:1
7:30:12
1:1
7:29:12
1:0
7:27:12
1:0
7:31:12
1:1
7:31:12
1:1
0:51:12
-1:0
7:32:11
1:-1
7:30:11
1:1
6:31:12
1:1
8:28:12
2:0
7:31:12
1:1
7:30:12
1:1
4:31:12
1:1
8:28:12
2:1
8:30:12
2:1
8:30:12
2:1
7:30:12
1:1
0:29:12
-1:1
7:31:12
1:1
7:30:12
1:1
8:30:12
2:1
6:29:12
1:1
7:28:12
1:0
7:30:12
1:1
7:30:12
1:1
7:31:12
1:0
5:28:12
1:1
7:31:12
1:1
7:30:12
1:1
7:30:12
1:0
8:31:12
2:1
7:29:12
1:1
7:30:12
1:1
7:31:12
1:1
7:31:12
1:1
7:28:12
1:1
6:31:12
1:1
0:29:12
-1:1
6:31:12
1:1
7:29:12
1:0
7:29:12
1:1
0:32:12
-1:1
2:50:12
0:-1
7:31:12
1:1
5:30:12
1:1
6:30:12
1:1
8:31:12
2:1
7:29:12
1:-1
7:30:12
1:1
8:31:12
2:-1
6:30:12
1:1
7:29:12
1:0
8:30:12
2:1
7:31:12
1:0
8:30:12
2:1
4:28:12
1:1
7:29:12
1:1
7:31:12
1:1
7:31:12
1:1
8:30:12
2:1
7:28:12
1:-1
7:31:12
1:0
7:30:12
1:1
7:31:12
1:1
7:28:12
1:0
7:31:12
1:1
7:31:12
1:1
7:30:12
1:1
4:28:12
1:1
7:31:12
1:1
8:29:12
2:1
7:30:12
1:1
0:30:12
-1:1
7:27:12
1:-1
7:31:12
1:1
7:31:12
1:1
7:29:12
1:1
6:29:12
1:1
8:55:12
2:0
7:30:12
1:1
2:32:12
0:1
7:31:12
1:-1
8:27:12
2:-1
7:30:12
1:1
7:30:12
1:1
8:31:12
2:0
8:28:12
2:0
7:31:12
1:1
8:28:12
2:1
7:31:12
1:0
7:29:12
1:0
7:28:12
1:1
8:30:12
2:1
7:30:12
1:0
8:30:12
2:1
7:30:12
1:1
7:30:12
1:1
7:31:12
1:1
7:30:12
1:1
7:28:12
1:0
6:30:12
1:1
7:30:12
1:1
7:29:12
1:1
6:28:12
1:0
7:30:12
1:1
7:30:12
1:1
7:31:12
1:1
7:29:12
1:1
6:28:12
1:1
8:28:12
2:1
7:31:12
1:1
7:30:12
1:1
7:29:12
1:1
5:30:12
1:1
2:64:12
0:0
7:30:12
1:1
7:31:12
1:1
8:28:12
2:0
7:30:12
1:1
7:30:12
1:1
7:30:12
1:1
6:28:12
1:0
7:31:12
1:1
7:30:12
1:1
8:31:12
2:1
6:29:12
1:0
7:30:12
1:1
7:30:12
1:1
6:30:12
1:1
1:31:12
-1:1
7:29:12
1:1
7:29:12
1:1
8:30:12
2:1
7:32:12
1:1
8:28:12
2:0
7:30:12
1:1
7:30:12
1:1
7:31:12
1:1
8:28:12
2:0
7:30:12
1:1
7:31:12
1:1
7:29:12
1:1
8:29:12
2:1
7:30:12
1:1
7:31:12
1:1
7:30:12
1:1
7:31:12
1:0
7:28:12
1:-1
7:29:12
1:1
8:31:12
2:1
0:49:12
-1:1
7:40:12
1:-1
5:29:12
1:1
5:31:12
1:1
7:31:12
1:1
7:30:12
1:1
8:31:12
2:1
4:30:12
1:1
8:29:12
2:1
7:30:12
1:1
7:30:12
1:1
7:27:12
1:1
7:31:12
1:1
7:31:12
1:1
7:31:12
1:1
7:27:12
1:1
7:30:12
1:1
7:31:12
1:1
7:30:12
1:1
7:28:12
1:1
7:31:12
1:0
7:30:12
1:1
7:31:12
1:1
7:29:12
1:1
8:28:12
2:0
7:31:12
1:1
7:30:12
1:1
7:31:12
1:1
7:29:12
1:0
7:30:12
1:1
8:32:12
2:1
8:31:12
2:1
4:28:12
1:1
7:31:12
1:1
7:30:12
1:1
7:30:12
1:1
1:37:12
-1:1
0:34:12
-1:-1
7:34:11
1:-1
7:30:11
1:1
8:30:12
2:-1
8:30:12
2:1
7:32:12
1:1
7:30:12
1:1
8:29:12
2:0
7:30:12
1:1
7:29:12
1:1
7:30:12
1:1
5:29:12
1:0
7:30:12
1:1
7:30:12
1:1
7:31:12
1:1
7:30:12
1:1
7:26:12
1:-1
7:31:12
1:1
7:30:12
1:1
7:30:12
1:1
7:30:12
1:0
7:30:12
1:1
7:30:12
1:1
7:31:12
1:1
7:28:12
1:0
8:30:12
2:1
8:30:12
2:1
8:30:12
2:1
5:31:12
1:0
7:29:12
1:1
0:30:12
-1:1
8:30:12
2:-1
7:31:12
1:1
7:29:12
1:0
7:30:12
1:1
6:30:12
1:1
0:30:12
-1:0
0:35:11
-1:-1
1:12:10
-1:-1
5:16:9
1:-1
7:30:9
1:1
7:30:10
1:1
6:31:11
1:0
7:30:12
1:1
7:31:12
1:1
7:31:12
1:1
8:29:12
2:0
7:30:12
1:1
7:30:12
1:1
7:30:12
1:1
4:27:12
1:0
8:30:12
2:1
7:32:12
1:1
6:30:12
1:1
6:32:12
1:1
7:28:12
1:-1
7:30:12
1:1
8:30:12
2:1
8:32:12
2:1
7:29:12
1:0
7:30:12
1:1
7:30:12
1:1
7:29:12
1:1
4:29:12
1:-1
7:30:12
1:1
7:32:12
1:1
7:30:12
1:1
2:30:12
0:1
7:30:12
1:1
7:31:12
1:1
7:29:12
1:1
8:32:12
2:1
7:27:12
1:1
7:30:12
1:1
1:30:12
-1:1
3:49:12
0:-1
7:28:12
1:-1
7:30:12
1:1
2:31:12
0:1
6:29:12
1:-1
8:29:12
2:0
7:30:12
1:1
7:30:12
1:1
7:31:12
1:1
8:28:12
2:0
7:32:12
1:1
7:30:12
1:1
7:30:12
1:1
8:27:12
2:0
7:31:12
1:1
7:30:12
1:1
7:30:12
1:0
7:31:12
1:1
7:29:12
1:1
7:29:12
1:1
7:31:12
1:1
6:30:12
1:1
7:28:12
1:0
6:31:12
1:1
8:30:12
2:1
7:29:12
1:-1
2:28:12
0:1
7:31:12
1:1
7:30:12
1:1
7:31:12
1:0
7:30:12
1:1
7:28:12
1:-1
7:31:12
1:1
8:31:12
2:0
7:30:12
1:1
7:27:12
1:0
2:30:12
0:1
0:48:12
-1:-1
7:32:11
1:-1
8:31:11
2:1
6:31:12
1:1
2:27:12
0:0
7:30:12
1:1
8:31:12
2:1
7:31:12
1:1
8:30:12
2:1
7:29:12
1:1
7:30:12
1:1
3:32:12
0:1
7:30:12
1:1
7:27:12
1:1
7:31:12
1:1
7:31:12
1:1
7:28:12
1:1
5:30:12
1:1
7:30:12
1:1
8:30:12
2:1
0:31:12
-1:1
8:30:12
2:-1
8:29:12
2:1
7:30:12
1:1
6:30:12
1:0
7:30:12
1:1
7:27:12
1:0
7:30:12
1:1
7:31:12
1:1
8:30:12
2:1
7:28:12
1:0
7:30:12
1:1
7:31:12
1:1
7:31:12
1:1
2:28:12
0:1
8:30:12
2:1
0:34:12
-1:1
7:48:12
1:-1
7:31:12
1:1
0:28:12
-1:1
6:31:12
1:1
7:30:12
1:1
7:30:12
1:1
7:30:12
1:1
7:28:12
1:0
7:31:12
1:1
8:30:12
2:1
7:30:12
1:1
6:28:12
1:0
7:30:12
1:1
8:30:12
2:1
7:33:12
1:1
3:29:12
0:1
7:31:12
1:1
7:29:12
1:1
7:31:12
1:1
7:31:12
1:0
7:28:12
1:-1
7:30:12
1:1
7:30:12
1:1
7:32:12
1:1
7:29:12
1:0
7:30:12
1:1
7:30:12
1:1
7:31:12
1:1
4:28:12
1:0
7:30:12
1:1
0:30:12
-1:1
8:31:12
2:-1
8:31:12
2:0
7:28:12
1:1
7:30:12
1:1
7:30:12
1:1
9:44:12
2:0
7:24:12
1:-1
7:30:12
1:1
0:30:12
-1:0
6:31:11
1:-1
7:30:11
1:1
7:30:12
1:1
0:28:12
-1:1
7:31:12
1:1
7:30:12
1:1
7:29:12
1:1
7:30:12
1:1
7:30:12
1:-1
7:31:12
1:1
7:29:12
1:1
6:31:12
1:1
6:27:12
1:0
7:31:12
1:1
8:30:12
2:1
8:30:12
2:1
2:30:12
0:1
6:30:12
1:1
7:30:12
1:1
7:29:12
1:1
7:32:12
1:1
7:28:12
1:-1
7:30:12
1:1
7:30:12
1:1
7:30:12
1:1
7:30:12
1:0
7:30:12
1:1
7:29:12
1:1
7:31:12
1:1
5:30:12
1:0
7:30:12
1:1
7:30:12
1:1
2:30:12
0:1
0:47:12
-1:-1
7:30:11
1:-1
7:31:11
1:1
5:31:12
1:1
7:30:12
1:1
0:28:12
-1:0
7:31:11
1:-1
7:30:11
1:1
7:30:12
1:1
8:28:12
2:0
8:30:12
2:1
7:30:12
1:1
7:31:12
1:1
0:29:12
-1:1
7:31:12
1:1
7:30:12
1:1
8:30:12
2:0
8:30:12
2:1
7:28:12
1:1
7:31:12
1:1
7:31:12
1:0
7:30:12
1:1
7:28:12
1:1
7:31:12
1:1
7:30:12
1:1
7:29:12
1:1
8:30:12
2:1
7:29:12
1:1
7:31:12
1:1
7:30:12
1:1
7:30:12
1:1
6:29:12
1:-1
8:31:12
2:1
7:31:12
1:0
7:30:12
1:1
7:28:12
1:0
5:30:12
1:1
0:40:12
-1:-1
7:31:11
1:-1
6:30:11
1:0
6:31:12
1:1
7:31:12
1:1
6:30:12
1:1
8:30:12
2:1
7:30:12
1:1
8:31:12
2:1
7:29:12
1:1
7:30:12
1:1
7:28:12
1:-1
8:32:12
2:1
7:31:12
1:1
7:30:12
1:1
7:27:12
1:1
7:30:12
1:1
7:30:12
1:1
7:30:12
1:1
1:27:12
-1:1
7:31:12
1:1
7:30:12
1:1
7:30:12
1:1
7:31:12
1:1
8:28:12
2:-1
8:30:12
2:1
7:31:12
1:1
7:30:12
1:1
4:29:12
1:1
7:30:12
1:1
7:30:12
1:1
7:30:12
1:1
0:29:12
-1:0
7:31:11
1:1
7:31:12
1:1
7:31:12
1:1
0:29:12
-1:1
7:56:12
1:-1
7:30:12
1:1
5:32:12
1:1
2:30:12
0:1

Warmup complete CPU 0 instructions: 1000003 cycles: 532192 (Simulation time: 0 hr 0 min 2 sec) 

7:30:12
1:1
7:8:12
1:0
7:8:12
1:0
7:8:12
1:0
7:8:12
1:0
7:8:12
1:0
7:8:12
1:0
7:8:12
1:0
7:9:12
1:0
3:7:12
0:0
7:7:12
1:0
7:8:12
1:0
8:8:12
2:0
7:5:12
1:0
7:7:12
1:0
7:8:12
1:0
6:8:12
1:0
7:7:12
1:0
7:7:12
1:0
7:8:12
1:0
7:8:12
1:0
7:7:12
1:0
7:7:12
1:0
7:8:12
1:0
7:8:12
1:0
7:8:12
1:0
7:8:12
1:0
8:8:12
2:0
7:8:12
1:0
0:6:12
-1:-1
8:8:11
2:0
7:8:12
1:0
7:7:12
1:0
7:8:12
1:0
7:8:12
1:0
8:7:12
2:0
7:8:12
1:0
0:8:12
-1:0
7:7:11
1:-1
7:8:11
1:0
7:8:12
1:0
7:7:12
1:0
6:8:12
1:0
6:8:12
1:0
7:8:12
1:0
7:7:12
1:0
7:8:12
1:0
2:4:12
0:-1
5:7:12
1:0
7:8:12
1:0
7:9:12
1:0
6:7:12
1:0
8:7:12
2:0
8:8:12
2:0
7:8:12
1:0
7:8:12
1:0
7:8:12
1:0
7:8:12
1:0
8:8:12
2:0
3:8:12
0:-1
7:7:12
1:0
7:8:12
1:0
7:6:12
1:0
7:8:12
1:0
0:4:12
-1:-1
7:8:11
1:0
7:8:12
1:0
7:8:12
1:0
8:8:12
2:0
8:8:12
2:0
7:7:12
1:0
7:8:12
1:0
7:8:12
1:0
6:8:12
1:0
7:8:12
1:0
7:8:12
1:0
4:8:12
1:0
8:7:12
2:0
7:6:12
1:-1
7:8:12
1:0
7:8:12
1:0
8:7:12
2:-1
4:5:12
1:-1
8:8:12
2:0
7:8:12
1:0
8:8:12
2:0
7:7:12
1:0
7:7:12
1:0
7:8:12
1:0
7:7:12
1:0
7:8:12
1:0
8:7:12
2:0
7:7:12
1:0
4:8:12
1:0
7:8:12
1:0
8:8:12
2:0
7:8:12
1:0
7:8:12
1:0
0:4:12
-1:-1
4:6:11
1:0
7:8:12
1:0
8:8:12
2:0
7:8:12
1:0
7:7:12
1:0
7:8:12
1:0
6:8:12
1:0
7:8:12
1:0
7:7:12
1:0
7:7:12
1:0
7:8:12
1:0
7:8:12
1:0
8:8:12
2:0
7:7:12
1:0
7:9:12
1:0
6:9:12
1:0
7:8:12
1:0
3:5:12
0:0
7:8:12
1:0
7:8:12
1:0
7:9:12
1:0
6:9:12
1:0
7:8:12
1:0
8:8:12
2:0
2:7:12
0:0
3:9:12
0:-1
0:10:12
-1:-1
0:24:11
-1:0
0:3:10
-1:-1
3:6:9
0:-1
6:8:9
1:0
8:7:10
2:0
3:4:11
0:-1
7:8:11
1:0
7:8:12
1:0
7:8:12
1:0
7:8:12
1:0
7:8:12
1:0
7:8:12
1:0
0:7:12
-1:-1
4:9:11
1:0
7:8:12
1:0
8:8:12
2:0
7:8:12
1:0
8:8:12
2:0
7:8:12
1:0
7:8:12
1:0
8:8:12
2:0
7:7:12
1:0
3:5:12
0:-1
7:8:12
1:0
8:8:12
2:0
7:8:12
1:0
8:8:12
2:0
7:8:12
1:0
7:8:12
1:0
4:8:12
1:0
7:7:12
1:0
7:7:12
1:0
7:7:12
1:0
7:8:12
1:0
7:8:12
1:0
7:6:12
1:0
7:9:12
1:0
7:8:12
1:0
7:8:12
1:0
7:5:12
1:0
7:7:12
1:0
7:8:12
1:0
7:8:12
1:0
7:7:12
1:0
7:7:12
1:0
7:8:12
1:0
7:8:12
1:0
8:8:12
2:0
7:7:12
1:0
8:7:12
2:0
7:7:12
1:0
7:7:12
1:0
0:7:12
-1:-1
7:8:11
1:-1
7:7:11
1:0
7:8:12
1:0
2:6:12
0:-1
6:7:12
1:0
6:7:12
1:-1
6:8:12
1:0
7:8:12
1:0
7:6:12
1:0
8:8:12
2:0
7:7:12
1:-1
7:8:12
1:0
0:8:12
-1:0
6:8:11
1:-1
7:7:11
1:0
0:8:12
-1:0
8:8:11
2:-1
7:8:11
1:0
7:7:12
1:0
7:8:12
1:0
7:8:12
1:0
3:5:12
0:-1
7:8:12
1:0
7:8:12
1:0
7:8:12
1:0
8:8:12
2:0
8:6:12
2:-1
4:8:12
1:0
7:7:12
1:0
0:8:12
-1:0
6:8:11
1:-1
7:7:11
1:0
7:8:12
1:0
8:8:12
2:0
7:7:12
1:0
7:7:12
1:0
7:8:12
1:0
8:8:12
2:0
0:6:12
-1:0
6:7:11
1:-1
6:7:11
1:0
7:8:12
1:0
7:8:12
1:0
7:9:12
1:0
5:7:12
1:0
7:8:12
1:0
7:8:12
1:0
7:7:12
1:0
7:7:12
1:0
8:8:12
2:0
8:8:12
2:0
7:8:12
1:0
7:8:12
1:0
7:8:12
1:0
8:8:12
2:0
7:5:12
1:-1
6:7:12
1:0
7:8:12
1:0
7:8:12
1:0
8:8:12
2:0
7:7:12
1:-1
7:7:12
1:0
8:8:12
2:0
8:8:12
2:0
7:7:12
1:0
7:7:12
1:0
7:8:12
1:0
8:8:12
2:0
7:7:12
1:0
8:7:12
2:0
7:7:12
1:0
0:8:12
-1:0
0:5:11
-1:-1
4:6:10
1:0
8:8:11
2:0
7:8:12
1:0
7:9:12
1:0
7:7:12
1:0
6:8:12
1:0
7:7:12
1:0
7:9:12
1:0
7:8:12
1:0
7:8:12
1:0
7:8:12
1:0
8:8:12
2:0
7:8:12
1:0
8:8:12
2:0
7:7:12
1:0
7:8:12
1:0
2:5:12
0:-1
2:8:12
0:-1
4:8:12
1:-1
0:8:12
-1:-1
1:29:11
-1:-1
0:7:10
-1:-1
0:3:9
-1:-1
5:7:8
1:0
7:8:9
1:0
7:8:10
1:0
7:7:11
1:0
7:7:12
1:0
7:8:12
1:0
7:8:12
1:0
7:7:12
1:0
7:7:12
1:0
7:8:12
1:0
4:7:12
1:-1
4:7:12
1:0
7:8:12
1:0
7:7:12
1:0
7:8:12
1:0
7:8:12
1:0
0:6:12
-1:-1
5:8:11
1:0
7:9:12
1:0
7:8:12
1:0
7:8:12
1:0
7:8:12
1:0
7:8:12
1:0
7:8:12
1:0
7:8:12
1:0
7:8:12
1:0
0:7:12
-1:0
5:9:11
1:0
7:7:12
1:0
7:8:12
1:0
8:7:12
2:0
7:8:12
1:0
7:7:12
1:0
7:5:12
1:-1
6:7:12
1:0
7:9:12
1:0
7:7:12
1:0
7:8:12
1:0
8:7:12
2:0
7:8:12
1:0
7:7:12
1:0
7:8:12
1:0
8:7:12
2:0
7:8:12
1:0
5:7:12
1:0
8:8:12
2:0
8:8:12
2:0
7:8:12
1:0
7:8:12
1:0
8:8:12
2:0
7:5:12
1:0
6:7:12
1:0
7:8:12
1:0
8:7:12
2:0
8:8:12
2:0
0:8:12
-1:0
6:7:11
1:-1
6:7:11
1:0
7:8:12
1:0
7:7:12
1:0
2:9:12
0:0
6:7:12
1:0
7:8:12
1:0
7:7:12
1:0
7:8:12
1:0
7:7:12
1:0
7:7:12
1:0
7:7:12
1:0
0:4:12
-1:-1
7:7:11
1:-1
7:9:11
1:0
8:7:12
2:0
7:8:12
1:0
7:8:12
1:0
7:8:12
1:0
7:8:12
1:0
8:8:12
2:0
7:7:12
1:-1
7:8:12
1:0
8:7:12
2:0
7:7:12
1:0
8:8:12
2:0
8:6:12
2:-1
7:8:12
1:0
7:8:12
1:0
0:4:12
-1:-1
4:6:11
1:0
7:9:12
1:0
7:7:12
1:0
7:7:12
1:0
7:7:12
1:0
0:6:12
-1:-1
7:8:11
1:-1
7:7:11
1:0
7:8:12
1:0
4:8:12
1:0
7:7:12
1:0
7:8:12
1:0
7:8:12
1:0
7:8:12
1:0
7:8:12
1:0
7:8:12
1:0
7:6:12
1:0
3:6:12
0:-1
8:8:12
2:0
8:8:12
2:0
7:7:12
1:0
8:7:12
2:0
7:8:12
1:0
7:8:12
1:0
7:7:12
1:0
7:8:12
1:0
7:8:12
1:0
7:8:12
1:0
7:8:12
1:0
7:6:12
1:0
7:8:12
1:0
7:8:12
1:0
7:8:12
1:0
0:6:12
-1:-1
7:7:11
1:-1
7:8:11
1:0
0:8:12
-1:0
6:8:11
1:-1
7:7:11
1:0
7:8:12
1:0
7:7:12
1:0
7:8:12
1:0
3:8:12
0:0
7:8:12
1:0
8:8:12
2:0
7:7:12
1:0
7:8:12
1:0
7:8:12
1:0
7:8:12
1:0
7:8:12
1:0
0:7:12
-1:-1
1:8:11
-1:0
7:9:10
1:-1
0:7:10
-1:-1
6:5:9
1:-1
7:9:9
1:-1
3:10:9
0:0
0:7:9
-1:0
0:29:8
-1:-1
0:7:7
-1:0
0:1:6
-1:-1
2:1:5
0:-1
6:3:5
1:-1
9:4:5
2:0
11:5:6
2:0
0:1:7
-1:-1
2:8:6
0:-1
6:7:6
1:-1
6:7:6
1:0
7:8:7
1:0
7:8:8
1:0
7:8:9
1:0
7:8:10
1:0
7:8:11
1:0
7:8:12
1:0
0:8:12
-1:0
3:8:11
0:-1
6:8:11
1:0
7:8:12
1:0
7:7:12
1:0
2:4:12
0:-1
6:8:12
1:0
8:7:12
2:0
7:8:12
1:0
7:7:12
1:0
7:9:12
1:0
7:8:12
1:0
7:8:12
1:0
7:8:12
1:0
8:8:12
2:0
7:8:12
1:0
8:8:12
2:0
8:7:12
2:0
7:9:12
1:0
8:8:12
2:0
7:8:12
1:0
0:6:12
-1:-1
5:8:11
1:0
7:8:12
1:0
7:7:12
1:0
7:8:12
1:0
7:7:12
1:0
7:7:12
1:0
7:8:12
1:0
7:8:12
1:0
7:6:12
1:0
7:8:12
1:0
7:8:12
1:0
7:8:12
1:0
7:8:12
1:0
7:8:12
1:0
7:8:12
1:0
7:8:12
1:0
0:4:12
-1:-1
7:7:11
1:0
8:7:12
2:0
6:8:12
1:0
7:7:12
1:0
7:8:12
1:0
8:8:12
2:0
7:7:12
1:0
8:7:12
2:-1
6:7:12
1:0
7:7:12
1:0
7:7:12
1:0
7:8:12
1:0
6:8:12
1:0
6:8:12
1:0
7:7:12
1:0
7:8:12
1:0
7:7:12
1:0
0:6:12
-1:-1
4:7:11
1:0
7:7:12
1:0
7:8:12
1:0
7:8:12
1:0
7:8:12
1:0
8:8:12
2:0
7:8:12
1:0
7:8:12
1:0
8:8:12
2:0
7:8:12
1:0
8:8:12
2:0
7:8:12
1:0
7:8:12
1:0
8:8:12
2:0
8:8:12
2:0
7:7:12
1:0
0:4:12
-1:-1
7:7:11
1:0
8:7:12
2:0
7:8:12
1:0
7:8:12
1:0
7:8:12
1:0
7:7:12
1:0
6:7:12
1:0
1:8:12
-1:0
7:7:11
1:-1
7:8:11
1:0
7:8:12
1:0
7:9:12
1:0
7:8:12
1:0
7:6:12
1:0
7:7:12
1:0
7:8:12
1:0
7:7:12
1:0
2:4:12
0:-1
6:8:12
1:0
7:8:12
1:0
7:7:12
1:0
7:7:12
1:0
7:8:12
1:0
7:8:12
1:0
7:7:12
1:0
7:7:12
1:0
7:8:12
1:0
7:8:12
1:0
7:7:12
1:0
7:8:12
1:0
8:7:12
2:0
7:8:12
1:0
7:7:12
1:0
7:7:12
1:0
7:5:12
1:-1
5:7:12
1:0
7:8:12
1:0
7:7:12
1:0
7:8:12
1:0
0:8:12
-1:0
6:8:11
1:-1
7:8:11
1:0
7:8:12
1:0
7:8:12
1:0
7:8:12
1:0
4:8:12
1:0
7:7:12
1:0
0:8:12
-1:0
6:8:11
1:-1
7:7:11
1:0
7:7:12
1:0
8:6:12
2:-1
1:6:12
-1:-1
6:9:11
1:-1
7:7:11
1:0
8:7:12
2:0
7:7:12
1:0
7:8:12
1:0
1:8:12
-1:-1
3:8:11
0:-1
7:7:11
1:0
0:8:12
-1:-1
2:26:11
0:0
2:3:11
0:-1
6:5:11
1:0
0:4:12
-1:-1
3:2:11
0:-1
0:2:11
-1:-1
0:1:10
-1:-1
0:4:9
-1:-1
4:7:8
1:-1
7:8:8
1:0
7:8:9
1:0
7:8:10
1:0
7:8:11
1:0
7:6:12
1:0
7:8:12
1:0
7:8:12
1:0
7:8:12
1:0
0:8:12
-1:0
5:7:11
1:-1
6:7:11
1:-1
6:7:11
1:0
0:6:12
-1:-1
4:6:11
1:0
8:8:12
2:0
7:8:12
1:0
8:8:12
2:0
8:8:12
2:0
7:8:12
1:0
7:8:12
1:0
7:8:12
1:0
7:8:12
1:0
7:8:12
1:0
7:8:12
1:0
7:8:12
1:0
7:9:12
1:0
7:8:12
1:0
7:7:12
1:0
7:7:12
1:0
7:5:12
1:-1
7:8:12
1:0
7:7:12
1:0
6:8:12
1:0
7:8:12
1:0
7:8:12
1:0
7:7:12
1:0
7:8:12
1:0
7:7:12
1:0
7:8:12
1:0
7:7:12
1:0
7:8:12
1:0
7:7:12
1:0
7:9:12
1:-1
7:8:12
1:0
8:8:12
2:0
7:7:12
1:0
3:5:12
0:-1
7:8:12
1:0
8:8:12
2:0
7:7:12
1:0
7:7:12
1:0
7:8:12
1:0
8:8:12
2:0
7:7:12
1:0
7:8:12
1:0
7:7:12
1:0
6:7:12
1:0
7:7:12
1:0
7:9:12
1:0
6:8:12
1:0
6:8:12
1:0
0:8:12
-1:0
7:7:11
1:-1
0:6:11
-1:0
7:8:10
1:0
7:7:11
1:0
7:8:12
1:0
7:9:12
1:0
7:8:12
1:0
7:8:12
1:0
7:8:12
1:0
7:8:12
1:0
7:8:12
1:0
7:8:12
1:0
7:9:12
1:0
7:8:12
1:0
7:6:12
1:0
7:7:12
1:0
7:8:12
1:0
7:8:12
1:0
0:5:12
-1:0
5:7:11
1:0
8:8:12
2:0
8:8:12
2:0
7:7:12
1:0
8:7:12
2:0
7:8:12
1:0
8:7:12
2:0
7:8:12
1:0
7:8:12
1:0
6:8:12
1:0
8:8:12
2:0
7:7:12
1:-1
7:8:12
1:0
7:6:12
1:0
7:8:12
1:0
8:8:12
2:0
0:6:12
-1:0
7:7:11
1:0
8:7:12
2:0
8:8:12
2:0
7:9:12
1:0
7:8:12
1:0
7:7:12
1:0
7:8:12
1:0
7:7:12
1:0
7:8:12
1:0
7:7:12
1:0
7:8:12
1:0
4:8:12
1:0
7:8:12
1:0
8:8:12
2:0
7:8:12
1:0
7:8:12
1:0
7:5:12
1:-1
6:7:12
1:0
7:7:12
1:0
7:8:12
1:0
7:8:12
1:0
7:8:12
1:0
6:8:12
1:0
6:8:12
1:0
7:8:12
1:0
7:8:12
1:0
8:8:12
2:0
7:7:12
1:-1
7:8:12
1:0
8:7:12
2:0
7:7:12
1:0
7:8:12
1:0
7:8:12
1:0
0:4:12
-1:-1
4:6:11
1:0
8:8:12
2:0
7:8:12
1:0
7:8:12
1:0
7:7:12
1:0
6:9:12
1:0
7:8:12
1:0
4:8:12
1:-1
4:7:12
1:0
0:7:12
-1:-1
0:28:11
-1:-1
0:3:10
-1:-1
0:1:9
-1:-1
0:2:8
-1:-1
0:0:7
-1:-1
0:4:6
-1:-1
5:8:5
1:0
7:7:6
1:0
7:8:7
1:0
7:7:8
1:0
7:7:9
1:0
7:7:10
1:0
7:8:11
1:0
8:7:12
2:0
8:8:12
2:0
7:8:12
1:0
2:7:12
0:-1
3:5:12
0:-1
7:8:12
1:0
7:7:12
1:0
7:8:12
1:0
7:8:12
1:0
7:8:12
1:0
7:8:12
1:0
7:8:12
1:0
6:8:12
1:0
7:7:12
1:0
7:8:12
1:0
7:7:12
1:0
7:7:12
1:0
7:8:12
1:0
7:8:12
1:0
7:9:12
1:0
3:7:12
0:0
6:4:12
1:0
5:5:12
1:0
8:7:12
2:0
7:7:12
1:0
7:8:12
1:0
7:8:12
1:0
7:7:12
1:0
7:8:12
1:0
7:8:12
1:0
8:8:12
2:0
8:8:12
2:0
7:7:12
1:0
7:7:12
1:0
8:8:12
2:0
8:8:12
2:0
7:8:12
1:0
3:8:12
0:0
2:4:12
0:-1
8:8:12
2:0
7:7:12
1:0
7:7:12
1:0
8:8:12
2:0
8:8:12
2:0
7:7:12
1:0
7:8:12
1:0
7:8:12
1:0
7:8:12
1:0
7:8:12
1:0
6:6:12
1:-1
6:8:12
1:0
8:8:12
2:0
8:8:12
2:0
7:7:12
1:0
6:7:12
1:0
0:6:12
-1:-1
4:7:11
1:0
8:7:12
2:0
7:8:12
1:0
6:8:12
1:0
7:8:12
1:0
0:8:12
-1:0
7:7:11
1:-1
7:8:11
1:0
8:7:12
2:0
6:4:12
1:0
6:7:12
1:0
8:7:12
2:0
7:8:12
1:0
7:7:12
1:0
8:7:12
2:0
7:9:12
1:0
8:8:12
2:0
8:4:12
2:0
7:8:12
1:0
7:8:12
1:0
7:8:12
1:0
8:8:12
2:0
7:7:12
1:0
7:7:12
1:0
8:8:12
2:0
8:8:12
2:0
6:8:12
1:0
6:8:12
1:0
7:9:12
1:0
6:7:12
1:0
7:8:12
1:0
7:8:12
1:0
7:8:12
1:0
7:6:12
1:0
2:5:12
0:-1
6:7:12
1:0
8:8:12
2:0
7:8:12
1:0
7:8:12
1:0
8:8:12
2:0
7:8:12
1:0
8:8:12
2:0
7:8:12
1:0
7:8:12
1:0
8:8:12
2:0
7:8:12
1:0
8:8:12
2:0
7:6:12
1:0
7:10:12
1:0
7:8:12
1:0
2:6:12
0:0
6:8:12
1:0
7:8:12
1:0
7:8:12
1:0
8:8:12
2:0
7:8:12
1:0
7:8:12
1:0
6:8:12
1:0
7:7:12
1:0
7:7:12
1:0
7:8:12
1:0
7:7:12
1:0
7:8:12
1:0
7:8:12
1:0
7:8:12
1:0
8:8:12
2:0
0:7:12
-1:0
2:5:11
0:-1
6:8:11
1:0
7:8:12
1:0
7:8:12
1:0
7:8:12
1:0
7:8:12
1:0
7:8:12
1:0
6:8:12
1:0
6:8:12
1:0
7:8:12
1:0
5:6:12
1:-1
4:8:12
1:0
0:6:12
-1:-1
0:26:11
-1:-1
3:15:10
0:-1
6:6:10
1:0
7:8:11
1:0
7:9:12
1:0
8:8:12
2:0
2:4:12
0:-1
8:8:12
2:0
8:8:12
2:0
8:8:12
2:0
5:10:12
1:0
6:8:12
1:0
6:8:12
1:0
6:7:12
1:0
7:7:12
1:0
7:8:12
1:0
8:8:12
2:0
7:7:12
1:0
7:7:12
1:0
7:8:12
1:0
6:8:12
1:0
8:9:12
2:0
7:8:12
1:0
0:5:12
-1:0
8:7:11
2:0
8:7:12
2:0
7:7:12
1:0
8:8:12
2:0
7:9:12
1:0
7:8:12
1:0
7:8:12
1:0
7:8:12
1:0
7:8:12
1:0
7:8:12
1:0
6:8:12
1:0
6:8:12
1:0
7:7:12
1:0
8:8:12
2:0
8:8:12
2:0
7:8:12
1:0
2:4:12
0:-1
6:8:12
1:0
7:8:12
1:0
8:8:12
2:0
7:7:12
1:-1
7:8:12
1:0
7:8:12
1:0
7:7:12
1:0
7:7:12
1:0
7:8:12
1:0
7:8:12
1:0
7:7:12
1:0
8:7:12
2:0
8:8:12
2:0
7:9:12
1:0
7:7:12
1:0
6:8:12
1:0
7:5:12
1:-1
5:7:12
1:0
7:8:12
1:0
0:8:12
-1:0
6:10:11
1:-1
8:8:11
2:0
6:8:12
1:0
6:8:12
1:0
7:8:12
1:0
7:7:12
1:0
7:7:12
1:0
7:8:12
1:0
6:8:12
1:0
7:8:12
1:0
7:8:12
1:0
7:8:12
1:0
7:8:12
1:0
2:5:12
0:-1
7:8:12
1:0
7:7:12
1:0
7:8:12
1:0
7:8:12
1:0
7:8:12
1:0
6:8:12
1:0
6:8:12
1:0
7:8:12
1:0
7:7:12
1:0
7:7:12
1:0
7:8:12
1:0
7:8:12
1:0
7:7:12
1:0
8:8:12
2:0
7:7:12
1:0
0:8:12
-1:0
0:5:11
-1:-1
7:7:10
1:0
7:8:11
1:0
7:8:12
1:0
7:7:12
1:0
7:8:12
1:0
7:7:12
1:0
7:8:12
1:0
7:7:12
1:0
7:8:12
1:0
8:7:12
2:0
7:8:12
1:0
7:7:12
1:0
7:8:12
1:0
7:7:12
1:0
8:8:12
2:0
8:8:12
2:0
0:6:12
-1:-1
7:7:11
1:0
8:7:12
2:0
7:9:12
1:0
8:7:12
2:0
7:8:12
1:0
7:7:12
1:0
7:8:12
1:0
7:7:12
1:0
7:8:12
1:0
7:7:12
1:0
7:8:12
1:0
7:7:12
1:0
7:8:12
1:0
6:8:12
1:0
6:7:12
1:0
7:7:12
1:0
7:8:12
1:0
2:3:12
0:-1
5:7:12
1:0
7:8:12
1:0
7:6:12
1:0
7:8:12
1:0
8:8:12
2:0
7:8:12
1:0
7:8:12
1:0
7:7:12
1:0
7:8:12
1:0
7:8:12
1:0
7:8:12
1:0
6:9:12
1:0
6:8:12
1:0
7:9:12
1:0
5:7:12
1:0
7:9:12
1:0
1:6:12
-1:0
0:28:11
-1:-1
0:12:10
-1:-1
5:7:9
1:0
5:7:10
1:0
7:7:11
1:0
7:8:12
1:0
7:4:12
1:0
7:8:12
1:0
7:7:12
1:0
7:8:12
1:0
7:7:12
1:0
5:9:12
1:-1
4:8:12
1:0
8:8:12
2:0
6:7:12
1:0
8:7:12
2:0
7:7:12
1:0
7:9:12
1:0
8:8:12
2:0
8:8:12
2:0
6:8:12
1:0
6:8:12
1:0
7:8:12
1:0
0:4:12
-1:-1
4:6:11
1:0
8:8:12
2:0
7:8:12
1:0
7:7:12
1:0
7:7:12
1:0
7:9:12
1:0
7:7:12
1:0
7:8:12
1:0
7:7:12
1:0
7:8:12
1:0
7:8:12
1:0
0:7:12
-1:0
6:8:11
1:-1
7:8:11
1:0
8:7:12
2:0
7:8:12
1:0
0:6:12
-1:0
7:8:11
1:0
8:8:12
2:0
8:8:12
2:0
7:8:12
1:0
7:7:12
1:-1
7:8:12
1:0
7:8:12
1:0
7:8:12
1:0
7:8:12
1:0
8:9:12
2:0
7:7:12
1:0
7:7:12
1:0
7:7:12
1:0
7:8:12
1:0
7:8:12
1:0
7:8:12
1:0
0:5:12
-1:-1
5:7:11
1:0
8:8:12
2:0
7:7:12
1:0
7:8:12
1:0
4:9:12
1:0
7:8:12
1:0
7:8:12
1:0
8:8:12
2:0
7:8:12
1:0
7:7:12
1:0
7:9:12
1:0
7:8:12
1:0
6:8:12
1:0
7:8:12
1:0
7:7:12
1:0
7:7:12
1:0
0:6:12
-1:-1
4:6:11
1:0
8:8:12
2:0
8:8:12
2:0
7:7:12
1:-1
5:7:12
1:0
7:7:12
1:0
7:9:12
1:0
7:8:12
1:0
7:8:12
1:0
7:8:12
1:0
7:7:12
1:0
7:8:12
1:0
8:7:12
2:0
7:8:12
1:0
7:7:12
1:0
7:8:12
1:0
0:6:12
-1:-1
4:8:11
1:0
7:7:12
1:0
7:9:12
1:0
7:8:12
1:0
7:7:12
1:0
7:8:12
1:0
7:8:12
1:0
7:8:12
1:0
7:8:12
1:0
7:8:12
1:0
7:8:12
1:0
8:7:12
2:0
8:8:12
2:0
7:7:12
1:0
7:7:12
1:0
8:8:12
2:0
0:5:12
-1:-1
4:6:11
1:0
8:7:12
2:0
8:8:12
2:0
7:9:12
1:0
7:8:12
1:0
7:7:12
1:0
7:8:12
1:0
7:7:12
1:0
7:7:12
1:0
7:7:12
1:0
8:9:12
2:0
0:8:12
-1:0
6:8:11
1:-1
7:8:11
1:0
7:9:12
1:0
6:7:12
1:0
0:6:12
-1:-1
7:7:11
1:0
8:7:12
2:0
7:8:12
1:0
7:8:12
1:0
8:8:12
2:0
7:7:12
1:0
8:7:12
2:0
7:7:12
1:0
7:8:12
1:0
7:8:12
1:0
8:7:12
2:0
8:8:12
2:0
8:8:12
2:0
6:8:12
1:0
7:7:12
1:0
0:7:12
-1:0
2:8:11
0:-1
3:7:11
0:-1
1:9:11
-1:-1
0:27:10
-1:-1
0:0:9
-1:-1
0:4:8
-1:-1
5:9:7
1:0
8:5:8
2:-1
5:7:8
1:0
7:8:9
1:0
7:8:10
1:0
7:8:11
1:0
7:8:12
1:0
7:8:12
1:0
7:8:12
1:0
2:7:12
0:-1
4:8:12
1:-1
6:8:12
1:0
6:8:12
1:0
8:7:12
2:0
7:7:12
1:0
7:7:12
1:0
7:8:12
1:0
7:7:12
1:0
0:8:12
-1:0
3:5:11
0:-1
7:8:11
1:0
7:8:12
1:0
7:8:12
1:0
8:8:12
2:0
7:8:12
1:0
8:8:12
2:0
0:7:12
-1:0
7:8:11
1:0
7:8:12
1:0
7:8:12
1:0
7:8:12
1:0
7:8:12
1:0
7:8:12
1:0
7:7:12
1:0
7:7:12
1:0
0:5:12
-1:0
5:8:11
1:0
7:8:12
1:0
7:8:12
1:0
7:7:12
1:0
7:7:12
1:0
7:8:12
1:0
7:8:12
1:0
3:8:12
0:0
7:7:12
1:0
8:7:12
2:0
7:9:12
1:0
8:7:12
2:0
7:8:12
1:0
0:8:12
-1:0
7:7:11
1:-1
7:8:11
1:0
0:5:12
-1:0
8:7:11
2:0
7:6:12
1:0
8:8:12
2:0
7:8:12
1:0
7:7:12
1:0
7:8:12
1:0
8:8:12
2:0
6:8:12
1:-1
7:8:12
1:0
0:8:12
-1:0
6:8:11
1:-1
7:8:11
1:0
7:7:12
1:0
7:7:12
1:0
8:7:12
2:0
7:7:12
1:0
8:8:12
2:0
0:4:12
-1:-1
4:6:11
1:0
8:8:12
2:0
8:8:12
2:0
7:8:12
1:0
8:8:12
2:0
7:7:12
1:0
7:8:12
1:0
7:8:12
1:0
7:8:12
1:0
7:6:12
1:0
7:8:12
1:0
7:8:12
1:0
7:8:12
1:0
7:6:12
1:0
7:8:12
1:0
7:8:12
1:0
8:6:12
2:-1
4:6:12
1:0
6:6:12
1:-1
6:7:12
1:0
6:7:12
1:0
7:8:12
1:0
7:9:12
1:0
2:7:12
0:0
7:7:12
1:0
7:8:12
1:0
7:8:12
1:0
8:8:12
2:0
8:8:12
2:0
7:7:12
1:0
7:8:12
1:0
7:8:12
1:0
7:7:12
1:0
7:7:12
1:0
7:5:12
1:-1
6:7:12
1:0
7:7:12
1:0
7:7:12
1:0
7:8:12
1:0
7:7:12
1:0
2:7:12
0:0
8:8:12
2:0
8:8:12
2:0
8:8:12
2:0
7:7:12
1:0
7:8:12
1:0
7:8:12
1:0
7:7:12
1:0
7:8:12
1:0
7:7:12
1:0
7:8:12
1:0
0:4:12
-1:-1
4:8:11
1:0
6:8:12
1:0
7:8:12
1:0
7:8:12
1:0
8:8:12
2:0
3:8:12
0:-1
7:7:12
1:0
7:8:12
1:0
7:6:12
1:0
7:8:12
1:0
7:8:12
1:0
7:8:12
1:0
7:7:12
1:0
7:9:12
1:0
7:7:12
1:0
7:8:12
1:0
7:8:12
1:-1
3:4:12
0:-1
8:8:12
2:0
0:5:12
-1:-1
1:8:11
-1:-1
0:7:10
-1:-1
0:17:9
-1:-1
0:9:8
-1:-1
4:7:7
1:0
7:7:8
1:0
8:7:9
2:0
0:6:10
-1:0
7:8:9
1:0
7:8:10
1:0
7:8:11
1:0
7:7:12
1:0
7:7:12
1:0
7:7:12
1:0
4:9:12
1:0
5:7:12
1:0
0:8:12
-1:0
6:8:11
1:-1
7:8:11
1:0
7:8:12
1:0
7:8:12
1:0
7:8:12
1:0
7:9:12
1:0
6:7:12
1:0
7:7:12
1:0
7:4:12
1:0
6:7:12
1:0
7:8:12
1:0
7:7:12
1:0
7:8:12
1:0
7:8:12
1:0
7:7:12
1:0
7:8:12
1:0
7:8:12
1:0
7:9:12
1:0
7:7:12
1:0
7:8:12
1:0
7:7:12
1:0
8:7:12
2:0
8:8:12
2:0
7:7:12
1:0
7:7:12
1:0
2:5:12
0:-1
6:7:12
1:0
7:8:12
1:0
7:8:12
1:0
7:8:12
1:0
7:8:12
1:0
7:9:12
1:0
7:8:12
1:0
7:8:12
1:0
7:8:12
1:0
7:7:12
1:0
7:7:12
1:0
7:8:12
1:0
7:7:12
1:0
7:8:12
1:0
7:7:12
1:0
7:8:12
1:0
3:5:12
0:0
7:9:12
1:-1
6:8:12
1:0
8:8:12
2:0
8:8:12
2:0
2:7:12
0:-1
6:8:12
1:0
7:7:12
1:0
6:7:12
1:0
7:9:12
1:0
7:8:12
1:0
7:6:12
1:-1
6:8:12
1:0
8:8:12
2:0
7:7:12
1:0
7:8:12
1:0
7:7:12
1:0
8:7:12
2:0
7:5:12
1:0
7:7:12
1:0
7:8:12
1:0
7:8:12
1:0
2:8:12
0:0
7:8:12
1:0
7:8:12
1:0
6:8:12
1:0
7:8:12
1:0
7:7:12
1:0
8:7:12
2:0
8:8:12
2:0
8:8:12
2:0
8:8:12
2:0
7:7:12
1:0
7:7:12
1:0
8:7:12
2:-1
3:4:12
0:-1
6:8:12
1:0
7:7:12
1:0
7:8:12
1:0
7:7:12
1:0
8:8:12
2:0
6:8:12
1:0
7:7:12
1:0
7:8:12
1:0
8:8:12
2:0
8:8:12
2:0
7:8:12
1:0
8:8:12
2:0
7:8:12
1:0
8:8:12
2:0
7:8:12
1:0
8:8:12
2:0
3:4:12
0:-1
7:8:12
1:0
7:8:12
1:0
7:8:12
1:0
7:9:12
1:0
7:8:12
1:0
7:8:12
1:0
7:7:12
1:0
8:8:12
2:0
7:8:12
1:0
7:8:12
1:0
8:8:12
2:0
8:8:12
2:0
7:7:12
1:0
0:8:12
-1:0
6:8:11
1:-1
8:6:11
2:-1
8:4:11
2:0
6:5:12
1:0
7:9:12
1:0
7:8:12
1:0
7:8:12
1:0
7:8:12
1:0
6:8:12
1:0
7:7:12
1:0
8:8:12
2:0
8:8:12
2:0
7:9:12
1:0
7:8:12
1:0
6:9:12
1:0
6:7:12
1:0
7:8:12
1:0
7:8:12
1:0
2:9:12
0:0
0:2:12
-1:-1
5:8:11
1:0
0:8:12
-1:-1
0:32:11
-1:-1
2:6:10
0:-1
7:6:10
1:-1
5:4:10
1:0
7:9:11
1:0
8:8:12
2:0
7:8:12
1:0
7:8:12
1:0
7:8:12
1:0
7:8:12
1:0
2:8:12
0:-1
4:7:12
1:-1
6:7:12
1:0
6:7:12
1:0
7:8:12
1:0
8:8:12
2:0
7:7:12
1:0
7:7:12
1:0
2:5:12
0:-1
5:6:12
1:0
6:7:12
1:0
7:8:12
1:0
7:8:12
1:0
8:8:12
2:0
7:7:12
1:0
7:7:12
1:0
8:8:12
2:0
7:9:12
1:0
7:8:12
1:0
7:8:12
1:0
7:8:12
1:0
7:8:12
1:0
7:8:12
1:0
7:8:12
1:0
8:8:12
2:-1
4:5:12
1:-1
7:8:12
1:0
7:7:12
1:0
8:9:12
2:0
8:8:12
2:0
7:8:12
1:0
7:8:12
1:0
7:8:12
1:0
8:8:12
2:0
3:8:12
0:-1
7:7:12
1:0
7:8:12
1:0
7:7:12
1:0
7:8:12
1:0
7:7:12
1:0
0:8:12
-1:0
0:5:11
-1:-1
4:6:10
1:0
8:8:11
2:0
7:8:12
1:0
7:8:12
1:0
0:6:12
-1:-1
6:8:11
1:-1
7:8:11
1:0
7:8:12
1:0
8:8:12
2:0
6:8:12
1:-1
7:8:12
1:0
8:8:12
2:0
7:7:12
1:0
8:7:12
2:0
0:8:12
-1:0
7:8:11
1:-1
6:7:11
1:0
0:4:12
-1:-1
5:8:11
1:0
7:8:12
1:0
7:8:12
1:0
8:7:12
2:0
8:8:12
2:0
8:8:12
2:0
7:7:12
1:0
7:8:12
1:0
7:8:12
1:0
7:8:12
1:0
0:8:12
-1:0
6:8:11
1:-1
7:7:11
1:0
7:8:12
1:0
7:7:12
1:0
7:8:12
1:0
0:4:12
-1:-1
7:7:11
1:0
8:7:12
2:0
7:7:12
1:0
7:8:12
1:0
6:7:12
1:0
7:8:12
1:0
7:8:12
1:0
7:8:12
1:0
7:9:12
1:0
6:8:12
1:0
7:7:12
1:0
7:7:12
1:0
7:8:12
1:0
7:8:12
1:0
8:7:12
2:0
7:8:12
1:0
0:6:12
-1:0
7:8:11
1:0
8:8:12
2:0
7:9:12
1:0
8:7:12
2:0
7:8:12
1:0
7:8:12
1:0
8:8:12
2:0
7:7:12
1:-1
7:7:12
1:0
7:8:12
1:0
8:8:12
2:0
7:7:12
1:0
7:7:12
1:0
7:8:12
1:0
8:8:12
2:0
8:8:12
2:0
1:4:12
-1:-1
5:8:11
1:0
8:8:12
2:0
7:8:12
1:0
8:8:12
2:0
7:8:12
1:0
7:8:12
1:0
7:8:12
1:0
4:8:12
1:0
7:7:12
1:0
0:8:12
-1:0
6:8:11
1:-1
7:7:11
1:0
7:8:12
1:0
7:7:12
1:0
8:7:12
2:0
7:7:12
1:0
0:5:12
-1:-1
4:7:11
1:0
7:5:12
1:0
6:10:12
1:0
6:10:12
1:0
7:8:12
1:0
5:7:12
1:0
1:16:12
-1:-1
1:18:11
-1:-1
3:4:10
0:-1
1:1:10
-1:-1
2:4:9
0:-1
6:9:9
1:-1
2:4:9
0:-1
6:8:9
1:0
7:8:10
1:0
7:8:11
1:0
7:7:12
1:0
7:7:12
1:0
7:8:12
1:0
7:7:12
1:0
0:9:12
-1:0
5:7:11
1:-1
5:8:11
1:0
6:6:12
1:0
7:8:12
1:0
7:8:12
1:0
7:8:12
1:0
7:8:12
1:0
7:8:12
1:0
8:8:12
2:-1
3:4:12
0:-1
8:9:12
2:0
8:8:12
2:0
7:8:12
1:0
7:8:12
1:0
7:8:12
1:0
7:8:12
1:0
0:7:12
-1:0
5:9:11
1:0
7:7:12
1:0
7:8:12
1:0
7:7:12
1:0
7:8:12
1:0
7:7:12
1:0
6:8:12
1:0
7:7:12
1:0
0:6:12
-1:-1
8:8:11
2:0
7:6:12
1:0
8:8:12
2:0
7:8:12
1:0
7:7:12
1:0
7:8:12
1:0
7:7:12
1:0
7:9:12
1:-1
6:8:12
1:0
8:8:12
2:0
7:7:12
1:0
7:7:12
1:0
8:8:12
2:0
8:8:12
2:0
7:6:12
1:0
8:8:12
2:0
0:5:12
-1:0
4:6:11
1:0
7:9:12
1:0
0:8:12
-1:0
7:7:11
1:-1
7:8:11
1:0
7:8:12
1:0
7:7:12
1:0
6:7:12
1:0
7:8:12
1:0
7:8:12
1:0
7:7:12
1:0
7:8:12
1:0
8:8:12
2:0
7:7:12
1:0
7:8:12
1:0
6:8:12
1:0
6:8:12
1:0
0:4:12
-1:-1
5:7:11
1:0
8:8:12
2:0
7:8:12
1:0
7:8:12
1:0
7:8:12
1:0
8:8:12
2:0
3:8:12
0:-1
7:7:12
1:0
7:8:12
1:0
7:7:12
1:0
7:8:12
1:0
8:8:12
2:0
7:6:12
1:0
7:8:12
1:0
8:8:12
2:0
8:8:12
2:0
0:5:12
-1:0
7:8:11
1:0
8:7:12
2:0
8:8:12
2:0
6:8:12
1:0
7:8:12
1:0
7:8:12
1:0
4:8:12
1:0
8:8:12
2:0
7:7:12
1:0
7:7:12
1:0
7:8:12
1:0
8:8:12
2:0
7:8:12
1:0
8:8:12
2:0
7:8:12
1:0
7:8:12
1:0
0:4:12
-1:-1
4:6:11
1:0
7:8:12
1:0
7:7:12
1:0
7:8:12
1:0
8:7:12
2:0
7:7:12
1:0
4:8:12
1:0
7:8:12
1:0
8:8:12
2:0
7:8:12
1:0
7:8:12
1:0
8:8:12
2:0
7:8:12
1:0
8:8:12
2:0
7:7:12
1:0
7:8:12
1:0
7:5:12
1:-1
5:8:12
1:0
7:8:12
1:0
7:8:12
1:0
7:8:12
1:0
7:8:12
1:0
3:8:12
0:0
7:7:12
1:0
7:8:12
1:0
7:6:12
1:0
7:8:12
1:0
7:8:12
1:0
7:8:12
1:0
7:8:12
1:0
7:6:12
1:0
7:8:12
1:0
0:8:12
-1:0
0:6:11
-1:-1
5:7:10
1:0
1:8:11
-1:-1
4:8:10
1:-1
5:9:10
1:0
1:6:11
-1:-1
2:26:10
0:-1
0:3:10
-1:-1
2:2:9
0:-1
2:3:9
0:-1
3:3:9
0:-1
0:9:9
-1:-1
3:5:8
0:-1
7:4:8
1:0
9:8:9
2:0
7:7:10
1:0
7:7:11
1:0
7:7:12
1:0
7:8:12
1:0
7:7:12
1:0
7:8:12
1:0
7:7:12
1:0
5:6:12
1:-1
3:9:12
0:0
0:6:12
-1:-1
4:6:11
1:0
8:8:12
2:0
7:8:12
1:0
7:8:12
1:0
7:8:12
1:0
7:8:12
1:0
6:8:12
1:0
6:8:12
1:0
7:7:12
1:0
7:7:12
1:0
8:7:12
2:0
8:8:12
2:0
7:8:12
1:0
7:8:12
1:0
7:9:12
1:0
6:7:12
1:0
0:5:12
-1:0
7:7:11
1:0
8:7:12
2:0
7:8:12
1:0
7:8:12
1:0
7:6:12
1:0
8:8:12
2:0
7:8:12
1:0
8:8:12
2:0
8:8:12
2:0
7:8:12
1:0
7:7:12
1:0
7:8:12
1:0
7:7:12
1:0
7:8:12
1:0
3:8:12
0:0
7:8:12
1:0
0:5:12
-1:-1
5:7:11
1:0
7:8:12
1:0
7:8:12
1:0
7:8:12
1:0
6:8:12
1:0
7:8:12
1:0
7:8:12
1:0
7:8:12
1:0
7:8:12
1:0
6:8:12
1:0
6:8:12
1:0
8:7:12
2:0
7:8:12
1:0
6:9:12
1:-1
6:8:12
1:0
7:8:12
1:0
0:5:12
-1:-1
7:8:11
1:0
7:7:12
1:0
7:8:12
1:0
7:8:12
1:0
6:8:12
1:0
6:8:12
1:0
7:6:12
1:0
7:7:12
1:0
7:8:12
1:0
7:7:12
1:0
8:9:12
2:0
7:8:12
1:0
8:8:12
2:0
3:8:12
0:-1
7:7:12
1:0
7:8:12
1:0
8:6:12
2:-1
3:5:12
0:0
7:7:12
1:0
7:8:12
1:0
7:8:12
1:0
8:8:12
2:0
8:8:12
2:0
7:7:12
1:0
7:7:12
1:0
7:8:12
1:0
6:8:12
1:0
7:9:12
1:0
7:8:12
1:0
7:8:12
1:0
7:7:12
1:0
8:8:12
2:0
7:8:12
1:0
7:8:12
1:0
3:4:12
0:-1
8:8:12
2:0
7:8:12
1:0
8:8:12
2:0
7:8:12
1:0
7:8:12
1:0
8:8:12
2:0
7:8:12
1:0
8:8:12
2:0
7:8:12
1:0
7:8:12
1:0
6:9:12
1:0
7:7:12
1:0
8:8:12
2:0
7:8:12
1:0
7:8:12
1:0
2:4:12
0:-1
6:8:12
1:0
7:8:12
1:0
7:8:12
1:0
8:8:12
2:0
6:8:12
1:0
7:7:12
1:0
7:8:12
1:0
7:8:12
1:0
7:7:12
1:0
7:7:12
1:0
8:8:12
2:0
7:8:12
1:0
7:8:12
1:0
8:8:12
2:0
7:7:12
1:0
7:8:12
1:0
0:4:12
-1:-1
4:6:11
1:0
1:9:12
-1:0
7:9:11
1:-1
7:8:11
1:0
7:8:12
1:0
6:8:12
1:0
6:8:12
1:0
7:8:12
1:0
6:9:12
1:0
5:5:12
1:0
9:9:12
2:-1
0:28:12
-1:-1
0:5:11
-1:-1
5:4:10
1:-1
0:2:10
-1:-1
4:3:9
1:0
2:3:10
0:-1
10:4:10
2:-1
14:5:10
2:0
13:4:11
2:0
12:6:12
2:0
0:5:12
-1:-1
3:6:11
0:-1
7:6:11
1:0
6:7:12
1:0
7:8:12
1:0
7:8:12
1:0
8:7:12
2:0
7:8:12
1:0
7:8:12
1:0
7:8:12
1:0
0:8:12
-1:0
5:7:11
1:-1
5:8:11
1:0
6:8:12
1:0
7:8:12
1:0
7:7:12
1:0
7:5:12
1:-1
7:8:12
1:0
8:8:12
2:0
8:8:12
2:0
6:8:12
1:0
7:8:12
1:0
7:8:12
1:0
7:8:12
1:0
8:8:12
2:0
7:8:12
1:0
7:8:12
1:0
0:7:12
-1:-1
7:8:11
1:0
7:8:12
1:0
7:8:12
1:0
7:8:12
1:0
0:4:12
-1:-1
4:6:11
1:0
0:8:12
-1:0
6:8:11
1:-1
7:7:11
1:0
7:7:12
1:0
8:7:12
2:0
8:8:12
2:0
7:8:12
1:0
7:8:12
1:0
7:8:12
1:0
7:8:12
1:0
7:6:12
1:0
4:8:12
1:0
8:8:12
2:0
7:7:12
1:0
7:8:12
1:0
7:7:12
1:0
7:4:12
1:0
6:7:12
1:0
8:8:12
2:0
7:8:12
1:0
8:8:12
2:0
7:8:12
1:0
7:9:12
1:0
6:7:12
1:0
7:7:12
1:0
7:7:12
1:0
7:8:12
1:0
6:10:12
1:0
6:8:12
1:0
7:8:12
1:0
6:8:12
1:0
7:7:12
1:0
7:7:12
1:0
0:5:12
-1:-1
5:7:11
1:0
7:8:12
1:0
6:8:12
1:0
7:8:12
1:0
7:8:12
1:0
7:8:12
1:0
7:8:12
1:0
7:7:12
1:0
7:8:12
1:0
7:8:12
1:0
7:7:12
1:-1
7:8:12
1:0
7:8:12
1:0
7:9:12
1:0
6:7:12
1:0
7:8:12
1:0
7:5:12
1:-1
7:8:12
1:0
7:7:12
1:0
7:8:12
1:0
7:7:12
1:0
7:8:12
1:0
7:7:12
1:0
6:8:12
1:0
8:8:12
2:0
7:8:12
1:0
7:9:12
1:0
5:7:12
1:0
8:7:12
2:0
8:8:12
2:0
7:7:12
1:0
7:7:12
1:0
7:8:12
1:0
0:4:12
-1:-1
4:7:11
1:0
7:7:12
1:0
7:8:12
1:0
7:7:12
1:0
7:7:12
1:0
7:8:12
1:0
7:8:12
1:0
8:8:12
2:0
7:7:12
1:0
7:7:12
1:0
7:9:12
1:0
8:7:12
2:0
7:8:12
1:0
7:7:12
1:0
7:8:12
1:0
8:7:12
2:0
8:7:12
2:-1
7:5:12
1:0
7:8:12
1:0
7:8:12
1:0
7:8:12
1:0
6:8:12
1:0
6:8:12
1:0
7:8:12
1:0
8:7:12
2:0
8:8:12
2:0
0:7:12
-1:-1
7:8:11
1:0
8:7:12
2:0
7:7:12
1:0
7:8:12
1:0
8:8:12
2:0
7:7:12
1:0
8:7:12
2:0
2:5:12
0:-1
6:8:12
1:0
7:8:12
1:0
7:9:12
1:0
1:7:12
-1:-1
1:8:11
-1:-1
1:7:10
-1:-1
4:11:9
1:-1
7:9:9
1:0
0:11:10
-1:-1
0:18:9
-1:-1
0:3:8
-1:-1
0:5:7
-1:-1
2:3:6
0:-1
5:9:6
1:0
7:6:7
1:0
8:7:8
2:0
7:8:9
1:0
7:7:10
1:0
7:8:11
1:0
8:8:12
2:0
8:8:12
2:0
8:8:12
2:0
2:6:12
0:-1
4:8:12
1:-1
6:7:12
1:0
7:8:12
1:0
7:7:12
1:0
0:4:12
-1:-1
7:6:11
1:-1
8:7:11
2:0
7:8:12
1:0
7:7:12
1:0
7:8:12
1:0
6:7:12
1:0
7:8:12
1:0
8:7:12
2:0
7:7:12
1:0
7:8:12
1:0
7:7:12
1:0
7:8:12
1:0
7:8:12
1:0
7:8:12
1:0
7:8:12
1:0
8:8:12
2:0
7:6:12
1:0
3:4:12
0:-1
8:8:12
2:0
7:7:12
1:0
7:6:12
1:0
7:8:12
1:0
7:8:12
1:0
7:7:12
1:0
8:8:12
2:0
7:8:12
1:0
8:8:12
2:0
7:7:12
1:0
8:7:12
2:0
7:8:12
1:-1
7:8:12
1:0
7:8:12
1:0
7:8:12
1:0
7:7:12
1:0
3:5:12
0:0
7:8:12
1:0
7:7:12
1:-1
7:8:12
1:0
7:8:12
1:0
8:8:12
2:0
7:7:12
1:0
8:7:12
2:-1
6:7:12
1:0
7:8:12
1:0
7:8:12
1:0
7:9:12
1:0
6:7:12
1:0
7:8:12
1:0
0:8:12
-1:0
7:7:11
1:-1
7:8:11
1:0
8:6:12
2:0
8:5:12
2:0
7:8:12
1:0
7:8:12
1:0
7:8:12
1:0
8:8:12
2:0
7:8:12
1:0
7:9:12
1:0
7:7:12
1:0
7:8:12
1:0
7:7:12
1:0
8:8:12
2:0
7:9:12
1:0
7:8:12
1:0
7:7:12
1:0
7:8:12
1:0
7:8:12
1:0
0:4:12
-1:-1
5:8:11
1:0
7:8:12
1:0
7:8:12
1:0
7:6:12
1:0
7:8:12
1:0
7:9:12
1:0
7:9:12
1:0
7:8:12
1:0
6:7:12
1:0
7:8:12
1:0
7:8:12
1:0
7:8:12
1:0
7:7:12
1:0
8:7:12
2:0
7:7:12
1:0
7:8:12
1:0
8:6:12
2:-1
4:6:12
1:0
7:7:12
1:0
7:7:12
1:0
7:8:12
1:0
7:8:12
1:0
7:7:12
1:0
8:8:12
2:0
8:8:12
2:0
7:8:12
1:0
7:9:12
1:0
7:6:12
1:0
6:7:12
1:0
7:8:12
1:0
7:7:12
1:0
7:8:12
1:0
7:7:12
1:0
8:7:12
2:0
7:5:12
1:0
7:7:12
1:0
7:9:12
1:0
7:8:12
1:0
0:8:12
-1:0
6:8:11
1:-1
8:8:11
2:0
7:8:12
1:0
8:8:12
2:0
7:7:12
1:0
7:8:12
1:0
7:8:12
1:0
7:7:12
1:0
7:6:12
1:0
7:8:12
1:0
8:7:12
2:0
7:8:12
1:0
7:4:12
1:0
7:8:12
1:0
7:7:12
1:0
7:8:12
1:0
7:7:12
1:0
7:8:12
1:0
0:7:12
-1:-1
7:8:11
1:-1
2:8:11
0:0
0:5:11
-1:-1
0:40:10
-1:-1
0:7:9
-1:-1
2:5:8
0:-1
6:9:8
1:0
6:9:9
1:0
7:7:10
1:0
7:8:11
1:0
7:7:12
1:0
7:8:12
1:0
8:7:12
2:0
7:7:12
1:0
7:7:12
1:0
1:8:12
-1:-1
2:3:11
0:-1
6:9:11
1:0
1:7:12
-1:0
6:8:11
1:-1
7:7:11
1:0
8:8:12
2:0
7:8:12
1:0
7:8:12
1:0
8:8:12
2:0
7:7:12
1:0
7:6:12
1:0
7:8:12
1:0
7:8:12
1:0
7:7:12
1:0
7:7:12
1:0
7:8:12
1:0
7:9:12
1:0
0:5:12
-1:-1
5:8:11
1:0
7:8:12
1:0
7:8:12
1:0
7:8:12
1:0
7:8:12
1:0
7:6:12
1:0
7:9:12
1:0
7:8:12
1:0
7:6:12
1:0
7:8:12
1:0
7:8:12
1:0
8:8:12
2:0
7:7:12
1:0
8:7:12
2:0
7:8:12
1:0
8:8:12
2:0
0:5:12
-1:-1
5:7:11
1:0
7:8:12
1:0
8:8:12
2:0
8:8:12
2:0
7:8:12
1:0
6:8:12
1:0
7:8:12
1:0
7:8:12
1:0
7:8:12
1:0
7:8:12
1:0
0:8:12
-1:0
6:8:11
1:-1
8:8:11
2:0
7:7:12
1:0
7:8:12
1:0
7:7:12
1:0
0:6:12
-1:-1
4:6:11
1:0
7:9:12
1:0
6:7:12
1:0
7:8:12
1:0
7:7:12
1:0
7:8:12
1:0
7:7:12
1:0
7:8:12
1:0
7:8:12
1:0
7:8:12
1:0
7:6:12
1:0
7:8:12
1:0
7:8:12
1:0
7:8:12
1:0
7:8:12
1:0
7:8:12
1:0
8:7:12
2:-1
7:6:12
1:0
7:7:12
1:0
7:7:12
1:0
7:8:12
1:0
7:7:12
1:0
7:7:12
1:0
7:8:12
1:0
8:8:12
2:0
7:7:12
1:0
7:7:12
1:0
7:8:12
1:0
6:8:12
1:0
7:7:12
1:0
8:7:12
2:0
7:9:12
1:0
7:8:12
1:0
6:8:12
1:0
0:4:12
-1:-1
5:7:11
1:0
8:7:12
2:0
7:7:12
1:0
8:8:12
2:0
8:8:12
2:0
8:8:12
2:0
7:7:12
1:0
7:7:12
1:0
8:8:12
2:0
7:7:12
1:0
7:7:12
1:0
8:8:12
2:0
8:8:12
2:0
7:9:12
1:0
7:8:12
1:0
7:8:12
1:0
2:5:12
0:-1
6:8:12
1:0
8:8:12
2:0
7:7:12
1:0
7:7:12
1:0
8:8:12
2:0
8:8:12
2:0
7:7:12
1:0
7:8:12
1:0
6:8:12
1:0
6:8:12
1:0
7:7:12
1:0
7:8:12
1:0
7:7:12
1:0
7:7:12
1:0
5:9:12
1:0
7:8:12
1:0
0:6:12
-1:-1
4:6:11
1:0
7:8:12
1:0
7:8:12
1:0
8:8:12
2:0
7:8:12
1:0
8:8:12
2:0
8:8:12
2:0
7:7:12
1:0
8:7:12
2:0
0:7:12
-1:0
7:9:11
1:-1
7:6:11
1:0
2:5:12
0:0
2:29:12
0:-1
0:16:12
-1:-1
0:4:11
-1:-1
4:7:10
1:-1
8:9:10
2:0
7:8:11
1:0
7:7:12
1:0
7:8:12
1:0
7:7:12
1:0
7:8:12
1:0
8:7:12
2:0
7:5:12
1:0
1:9:12
-1:0
2:6:11
0:-1
6:7:11
1:0
7:7:12
1:0
7:8:12
1:0
7:7:12
1:0
7:8:12
1:0
7:8:12
1:0
7:8:12
1:0
7:9:12
1:0
7:8:12
1:0
7:8:12
1:0
7:8:12
1:0
7:6:12
1:0
7:8:12
1:0
7:8:12
1:0
0:4:12
-1:-1
7:7:11
1:0
7:8:12
1:-1
6:7:12
1:0
7:8:12
1:0
7:7:12
1:0
7:8:12
1:0
8:7:12
2:0
7:8:12
1:0
8:7:12
2:0
7:8:12
1:0
8:7:12
2:0
7:7:12
1:0
7:7:12
1:0
7:8:12
1:0
7:7:12
1:0
7:8:12
1:0
7:7:12
1:0
7:4:12
1:0
7:9:12
1:-1
6:8:12
1:0
8:8:12
2:0
8:8:12
2:0
8:8:12
2:0
7:8:12
1:0
6:8:12
1:0
6:8:12
1:0
7:8:12
1:0
7:8:12
1:0
7:8:12
1:0
7:8:12
1:0
8:8:12
2:-1
7:6:12
1:0
7:8:12
1:0
8:7:12
2:-1
0:5:12
-1:-1
7:9:11
1:-1
8:7:11
2:0
7:7:12
1:0
8:8:12
2:0
7:7:12
1:0
6:7:12
1:0
7:8:12
1:0
0:8:12
-1:0
7:9:11
1:-1
8:8:11
2:0
8:8:12
2:0
7:8:12
1:0
7:8:12
1:0
7:8:12
1:0
7:8:12
1:0
8:8:12
2:0
3:5:12
0:-1
6:7:12
1:0
7:8:12
1:0
7:7:12
1:0
7:8:12
1:0
8:8:12
2:0
7:8:12
1:0
8:8:12
2:0
7:8:12
1:0
7:9:12
1:0
7:7:12
1:0
0:8:12
-1:0
7:7:11
1:-1
6:8:11
1:0
6:8:12
1:0
7:8:12
1:0
7:6:12
1:0
4:6:12
1:-1
5:5:12
1:0
7:8:12
1:0
7:8:12
1:0
7:8:12
1:0
7:8:12
1:0
7:8:12
1:0
7:8:12
1:0
7:8:12
1:0
8:9:12
2:0
7:8:12
1:0
8:8:12
2:0
7:7:12
1:0
7:7:12
1:0
7:8:12
1:0
7:9:12
1:0
0:4:12
-1:-1
4:6:11
1:0
8:8:12
2:0
7:8:12
1:0
7:8:12
1:0
7:8:12
1:0
7:8:12
1:0
7:8:12
1:0
7:8:12
1:0
6:8:12
1:0
7:7:12
1:0
7:8:12
1:0
7:7:12
1:0
7:8:12
1:0
7:7:12
1:0
7:8:12
1:0
7:7:12
1:0
0:6:12
-1:-1
8:8:11
2:0
7:7:12
1:0
7:8:12
1:0
7:7:12
1:0
7:8:12
1:0
7:8:12
1:0
7:8:12
1:0
7:8:12
1:0
0:8:12
-1:0
1:8:11
-1:-1
6:9:10
1:-1
7:8:10
1:0
5:7:11
1:-1
4:7:11
1:0
6:8:12
1:0
0:33:12
-1:-1
3:13:11
0:-1
0:9:11
-1:-1
4:7:10
1:-1
7:7:10
1:0
7:8:11
1:0
7:7:12
1:0
2:4:12
0:-1
7:8:12
1:0
7:7:12
1:0
7:8:12
1:0
7:8:12
1:0
8:7:12
2:0
1:8:12
-1:-1
4:7:11
1:0
8:8:12
2:0
8:8:12
2:0
7:8:12
1:0
8:8:12
2:0
7:8:12
1:0
7:8:12
1:0
8:8:12
2:0
7:7:12
1:0
8:7:12
2:0
8:7:12
2:0
7:5:12
1:0
7:7:12
1:0
7:8:12
1:0
7:8:12
1:0
8:7:12
2:0
7:9:12
1:0
6:7:12
1:0
7:7:12
1:0
7:8:12
1:0
7:7:12
1:0
7:8:12
1:0
7:7:12
1:0
7:9:12
1:0
6:7:12
1:0
7:7:12
1:0
7:8:12
1:0
7:8:12
1:0
7:4:12
1:0
6:7:12
1:0
7:8:12
1:0
7:7:12
1:0
8:8:12
2:0
8:8:12
2:0
6:8:12
1:0
8:8:12
2:0
7:7:12
1:0
7:7:12
1:0
7:8:12
1:0
8:8:12
2:0
7:6:12
1:-1
6:8:12
1:0
7:8:12
1:0
7:7:12
1:0
7:7:12
1:0
0:4:12
-1:-1
3:6:11
0:-1
7:8:11
1:0
7:8:12
1:0
7:8:12
1:0
6:9:12
1:-1
6:8:12
1:0
7:8:12
1:0
8:8:12
2:0
7:8:12
1:0
7:8:12
1:0
8:7:12
2:0
7:8:12
1:0
7:7:12
1:0
7:8:12
1:0
7:8:12
1:0
7:8:12
1:0
0:6:12
-1:-1
4:6:11
1:0
8:8:12
2:0
7:8:12
1:0
0:8:12
-1:0
7:8:11
1:0
7:8:12
1:0
7:6:12
1:-1
6:7:12
1:0
7:7:12
1:0
7:8:12
1:0
7:8:12
1:0
7:7:12
1:0
7:7:12
1:0
7:8:12
1:0
8:8:12
2:0
0:7:12
-1:0
6:7:11
1:-1
1:6:11
-1:-1
7:7:10
1:-1
6:7:10
1:0
7:8:11
1:0
4:9:12
1:0
8:8:12
2:0
7:6:12
1:0
7:8:12
1:0
8:8:12
2:0
8:8:12
2:0
7:7:12
1:0
8:7:12
2:0
8:8:12
2:0
8:8:12
2:0
7:7:12
1:0
7:7:12
1:0
8:8:12
2:0
0:5:12
-1:-1
7:7:11
1:0
8:8:12
2:0
8:8:12
2:0
7:9:12
1:0
8:7:12
2:0
7:8:12
1:0
8:8:12
2:0
8:8:12
2:0
8:8:12
2:0
7:7:12
1:0
7:7:12
1:0
7:8:12
1:0
7:7:12
1:0
7:8:12
1:0
7:9:12
1:0
6:7:12
1:0
0:4:12
-1:-1
7:7:11
1:0
8:7:12
2:0
7:7:12
1:0
7:8:12
1:0
8:7:12
2:0
7:7:12
1:0
7:8:12
1:0
8:8:12
2:0
7:8:12
1:0
8:8:12
2:0
7:8:12
1:0
7:8:12
1:0
8:8:12
2:0
6:8:12
1:0
7:7:12
1:0
0:7:12
-1:0
7:9:11
1:-1
7:4:11
1:0
0:9:12
-1:0
0:39:11
-1:-1
0:4:10
-1:-1
2:5:9
0:-1
5:9:9
1:0
9:7:10
2:0
7:5:11
1:0
7:7:12
1:0
7:8:12
1:0
7:7:12
1:0
7:8:12
1:0
7:7:12
1:0
7:8:12
1:0
0:8:12
-1:0
2:6:11
0:-1
6:7:11
1:0
0:8:12
-1:0
7:8:11
1:-1
6:7:11
1:0
7:9:12
1:0
7:8:12
1:0
7:8:12
1:0
7:8:12
1:0
0:4:12
-1:-1
4:6:11
1:0
8:8:12
2:0
7:8:12
1:0
7:8:12
1:0
7:8:12
1:0
7:8:12
1:0
7:8:12
1:0
4:8:12
1:0
8:8:12
2:0
7:8:12
1:0
7:7:12
1:0
7:8:12
1:0
8:7:12
2:0
7:8:12
1:0
7:7:12
1:0
7:8:12
1:0
1:4:12
-1:-1
4:6:11
1:0
8:8:12
2:0
7:7:12
1:0
7:8:12
1:0
7:7:12
1:0
8:7:12
2:0
7:9:12
1:0
7:8:12
1:0
7:8:12
1:0
7:8:12
1:0
7:8:12
1:0
8:8:12
2:0
7:6:12
1:0
6:8:12
1:0
7:8:12
1:0
8:8:12
2:0
0:4:12
-1:-1
5:8:11
1:0
7:8:12
1:0
8:8:12
2:-1
6:7:12
1:0
7:7:12
1:0
7:8:12
1:0
0:7:12
-1:-1
5:9:11
1:0
7:7:12
1:0
7:8:12
1:0
7:8:12
1:0
7:7:12
1:0
7:8:12
1:0
7:8:12
1:0
7:8:12
1:0
6:8:12
1:0
7:8:12
1:0
7:5:12
1:-1
6:7:12
1:0
7:8:12
1:0
7:8:12
1:0
7:8:12
1:0
7:8:12
1:0
3:8:12
0:0
7:7:12
1:0
7:8:12
1:0
7:6:12
1:0
7:8:12
1:0
8:8:12
2:0
7:8:12
1:0
7:9:12
1:0
7:7:12
1:0
7:8:12
1:0
7:7:12
1:0
3:4:12
0:-1
6:8:12
1:0
8:8:12
2:0
6:8:12
1:0
7:7:12
1:0
7:8:12
1:0
7:8:12
1:0
7:7:12
1:0
7:7:12
1:0
7:8:12
1:0
7:8:12
1:0
7:8:12
1:0
7:8:12
1:0
7:9:12
1:0
8:8:12
2:0
7:8:12
1:0
8:8:12
2:0
7:4:12
1:0
6:7:12
1:0
8:7:12
2:0
8:8:12
2:0
7:8:12
1:0
8:6:12
2:-1
7:9:12
1:0
7:8:12
1:0
7:8:12
1:0
7:8:12
1:0
7:8:12
1:0
7:8:12
1:0
7:9:12
1:0
7:7:12
1:0
7:7:12
1:0
7:8:12
1:0
8:8:12
2:0
2:3:12
0:-1
6:8:12
1:0
7:8:12
1:0
7:7:12
1:0
7:8:12
1:0
7:7:12
1:0
6:8:12
1:0
8:8:12
2:0
7:8:12
1:0
7:8:12
1:0
7:8:12
1:0
7:8:12
1:0
7:8:12
1:0
7:8:12
1:0
8:7:12
2:0
0:8:12
-1:0
6:8:11
1:-1
2:4:11
0:-1
0:7:11
-1:-1
4:9:10
1:-1
5:7:10
1:0
1:7:11
-1:-1
2:25:10
0:-1
0:2:10
-1:-1
2:5:9
0:-1
6:10:9
1:0
7:8:10
1:0
7:8:11
1:0
7:8:12
1:0
7:8:12
1:0
8:8:12
2:0
2:4:12
0:-1
5:7:12
1:0
8:7:12
2:0
5:7:12
1:-1
5:8:12
1:0
6:8:12
1:0
6:7:12
1:0
7:7:12
1:0
7:8:12
1:0
8:8:12
2:0
7:7:12
1:0
7:7:12
1:0
7:8:12
1:0
7:9:12
1:0
7:7:12
1:0
7:7:12
1:0
7:8:12
1:0
8:8:12
2:0
7:4:12
1:0
5:7:12
1:0
7:8:12
1:0
7:8:12
1:0
7:8:12
1:0
7:8:12
1:0
7:8:12
1:0
7:8:12
1:0
7:8:12
1:0
6:8:12
1:0
7:7:12
1:0
7:8:12
1:0
8:8:12
2:0
8:8:12
2:0
7:8:12
1:0
7:8:12
1:0
8:8:12
2:0
3:4:12
0:-1
7:8:12
1:0
2:8:12
0:0
6:8:12
1:0
7:7:12
1:0
7:8:12
1:0
7:7:12
1:0
7:8:12
1:0
7:7:12
1:0
7:7:12
1:0
7:7:12
1:0
8:8:12
2:0
7:8:12
1:0
7:7:12
1:0
7:8:12
1:0
6:7:12
1:0
7:8:12
1:0
7:5:12
1:-1
8:7:12
2:0
6:6:12
1:-1
6:8:12
1:0
7:8:12
1:0
7:8:12
1:0
6:8:12
1:0
7:7:12
1:0
7:7:12
1:0
8:8:12
2:0
6:8:12
1:0
7:8:12
1:0
7:9:12
1:0
7:7:12
1:0
8:7:12
2:0
7:8:12
1:0
7:8:12
1:0
0:6:12
-1:0
5:8:11
1:0
7:9:12
1:0
7:8:12
1:0
6:8:12
1:0
7:7:12
1:0
7:7:12
1:0
7:8:12
1:0
7:8:12
1:0
7:7:12
1:0
7:7:12
1:0
7:8:12
1:0
8:9:12
2:0
7:7:12
1:0
7:8:12
1:0
7:7:12
1:0
7:8:12
1:0
0:7:12
-1:-1
4:6:11
1:0
8:8:12
2:0
7:7:12
1:0
7:8:12
1:0
7:7:12
1:0
7:7:12
1:0
7:7:12
1:0
7:7:12
1:0
7:8:12
1:0
8:7:12
2:0
7:8:12
1:0
7:8:12
1:0
8:8:12
2:0
7:8:12
1:0
7:8:12
1:0
7:8:12
1:0
0:7:12
-1:-1
3:7:11
0:0
7:8:11
1:0
7:7:12
1:0
7:8:12
1:0
7:7:12
1:0
7:8:12
1:0
7:7:12
1:0
8:7:12
2:0
7:7:12
1:0
7:7:12
1:0
7:8:12
1:0
0:8:12
-1:0
7:9:11
1:-1
8:8:11
2:0
7:8:12
1:0
7:8:12
1:0
0:6:12
-1:-1
4:8:11
1:0
7:7:12
1:0
7:8:12
1:0
8:8:12
2:0
8:8:12
2:0
7:7:12
1:0
7:9:12
1:0
7:8:12
1:0
8:8:12
2:0
7:7:12
1:0
6:7:12
1:0
7:8:12
1:0
8:8:12
2:0
5:7:12
1:0
7:9:12
1:0
1:6:12
-1:0
0:29:11
-1:-1
0:3:10
-1:-1
0:4:9
-1:-1
4:6:8
1:-1
7:8:8
1:0
8:8:9
2:0
7:4:10
1:0
7:8:11
1:0
8:8:12
2:0
7:8:12
1:0
7:8:12
1:0
7:7:12
1:0
7:7:12
1:0
5:9:12
1:0
5:6:12
1:0
8:8:12
2:0
6:5:12
1:-1
6:8:12
1:0
7:8:12
1:0
7:8:12
1:0
7:8:12
1:0
7:9:12
1:0
7:6:12
1:0
0:6:12
-1:-1
7:7:11
1:0
8:7:12
2:0
8:7:12
2:0
8:8:12
2:0
7:8:12
1:0
7:9:12
1:0
7:8:12
1:0
6:7:12
1:0
7:8:12
1:0
7:7:12
1:0
7:8:12
1:0
7:7:12
1:0
7:8:12
1:0
7:8:12
1:0
6:9:12
1:0
7:5:12
1:0
0:6:12
-1:-1
8:8:11
2:0
7:7:12
1:0
7:8:12
1:0
7:8:12
1:0
7:7:12
1:0
7:8:12
1:0
3:8:12
0:0
7:8:12
1:0
7:10:12
1:0
8:6:12
2:0
8:7:12
2:0
7:7:12
1:0
7:7:12
1:0
7:8:12
1:0
7:7:12
1:0
7:8:12
1:0
0:5:12
-1:0
4:6:11
1:0
5:10:12
1:0
6:7:12
1:0
6:7:12
1:0
7:8:12
1:0
7:9:12
1:0
7:7:12
1:0
7:8:12
1:0
7:7:12
1:-1
7:8:12
1:0
7:8:12
1:0
6:8:12
1:0
7:8:12
1:0
8:8:12
2:0
7:7:12
1:0
8:7:12
2:0
7:8:12
1:0
7:4:12
1:0
5:7:12
1:0
7:8:12
1:0
7:8:12
1:0
7:8:12
1:0
0:7:12
-1:0
7:8:11
1:0
7:8:12
1:0
6:8:12
1:0
7:7:12
1:0
7:8:12
1:0
8:8:12
2:0
8:8:12
2:0
8:8:12
2:0
7:7:12
1:0
8:7:12
2:0
8:8:12
2:0
0:3:12
-1:-1
8:7:11
2:0
7:8:12
1:0
7:8:12
1:0
7:8:12
1:0
7:9:12
1:0
7:7:12
1:0
7:8:12
1:0
8:8:12
2:0
8:6:12
2:-1
7:9:12
1:0
7:7:12
1:0
7:8:12
1:0
7:8:12
1:0
8:8:12
2:0
7:8:12
1:0
7:8:12
1:0
0:4:12
-1:-1
4:6:11
1:0
7:9:12
1:0
7:7:12
1:0
7:8:12
1:0
7:8:12
1:0
7:7:12
1:0
8:7:12
2:0
8:8:12
2:0
8:8:12
2:0
8:7:12
2:0
8:8:12
2:0
8:8:12
2:0
7:8:12
1:0
7:7:12
1:0
7:8:12
1:0
7:9:12
1:0
1:4:12
-1:-1
7:8:11
1:0
7:8:12
1:0
8:8:12
2:0
7:8:12
1:0
7:8:12
1:0
8:8:12
2:0
0:7:12
-1:0
7:9:11
1:-1
7:9:11
1:0
7:7:12
1:0
8:8:12
2:0
6:11:12
1:0
7:5:12
1:0
8:8:12
2:0
7:7:12
1:0
7:8:12
1:0
0:6:12
-1:-1
4:9:11
1:-1
7:5:11
1:-1
0:6:11
-1:0
1:34:10
-1:-1
6:10:9
1:0
7:8:10
1:0
8:8:11
2:0
7:8:12
1:0
7:8:12
1:0
8:8:12
2:0
7:10:12
1:0
8:6:12
2:0
0:8:12
-1:0
3:10:11
0:-1
7:8:11
1:0
7:8:12
1:0
6:7:12
1:0
7:9:12
1:0
3:4:12
0:-1
7:8:12
1:0
7:8:12
1:0
8:8:12
2:0
8:8:12
2:0
7:7:12
1:0
7:7:12
1:0
7:8:12
1:0
8:8:12
2:0
7:6:12
1:0
7:8:12
1:0
8:8:12
2:0
7:9:12
1:0
7:8:12
1:0
7:8:12
1:0
7:6:12
1:0
8:8:12
2:0
3:4:12
0:-1
0:9:12
-1:0
7:8:11
1:-1
7:8:11
1:0
7:8:12
1:0
7:6:12
1:0
7:8:12
1:0
7:8:12
1:0
7:8:12
1:0
7:8:12
1:0
7:8:12
1:0
2:8:12
0:0
6:8:12
1:0
7:7:12
1:0
7:8:12
1:0
7:7:12
1:0
8:7:12
2:0
7:5:12
1:0
7:8:12
1:0
7:8:12
1:0
7:8:12
1:0
7:7:12
1:0
7:7:12
1:0
0:8:12
-1:0
6:8:11
1:-1
7:8:11
1:0
7:8:12
1:0
7:9:12
1:0
6:7:12
1:0
7:8:12
1:0
8:8:12
2:0
7:7:12
1:0
8:7:12
2:0
0:7:12
-1:0
8:7:11
2:-1
7:6:11
1:0
7:5:12
1:0
6:8:12
1:0
8:7:12
2:0
7:8:12
1:0
7:7:12
1:0
7:8:12
1:0
8:7:12
2:0
7:7:12
1:0
7:8:12
1:0
7:8:12
1:0
7:8:12
1:0
7:8:12
1:0
6:8:12
1:0
6:8:12
1:0
7:8:12
1:0
8:6:12
2:-1
7:4:12
1:0
8:8:12
2:0
8:8:12
2:0
7:8:12
1:0
7:8:12
1:0
6:8:12
1:0
6:8:12
1:0
8:8:12
2:0
7:7:12
1:0
7:7:12
1:0
7:9:12
1:0
6:8:12
1:0
7:7:12
1:0
7:8:12
1:0
7:7:12
1:0
7:8:12
1:0
7:7:12
1:0
7:4:12
1:0
7:8:12
1:0
8:8:12
2:0
7:8:12
1:0
7:8:12
1:0
7:8:12
1:0
7:8:12
1:0
7:8:12
1:0
8:8:12
2:0
2:8:12
0:-1
7:7:12
1:0
7:8:12
1:0
7:7:12
1:0
7:8:12
1:0
7:7:12
1:0
7:9:12
1:0
8:5:12
2:-1
4:5:12
1:-1
0:8:12
-1:0
6:8:11
1:-1
7:8:11
1:0
7:6:12
1:0
7:8:12
1:0
8:8:12
2:0
7:8:12
1:0
7:9:12
1:0
2:7:12
0:0
7:7:12
1:0
7:8:12
1:0
6:8:12
1:0
7:7:12
1:0
7:8:12
1:0
8:8:12
2:0
0:7:12
-1:-1
1:4:11
-1:-1
6:8:10
1:-1
7:8:10
1:0
7:7:11
1:0
7:7:12
1:0
0:8:12
-1:0
3:8:11
0:0
7:9:11
1:-1
0:8:11
-1:-1
0:33:10
-1:-1
3:13:9
0:-1
7:7:9
1:0
6:4:10
1:0
6:8:11
1:0
8:7:12
2:0
7:8:12
1:0
7:7:12
1:0
7:8:12
1:0
8:7:12
2:0
7:7:12
1:0
2:8:12
0:-1
6:7:12
1:0
7:8:12
1:0
8:8:12
2:0
7:8:12
1:0
8:8:12
2:0
7:8:12
1:0
7:8:12
1:0
8:8:12
2:0
6:8:12
1:0
7:7:12
1:0
7:7:12
1:0
7:8:12
1:0
7:8:12
1:0
7:7:12
1:0
7:7:12
1:0
7:9:12
1:0
0:4:12
-1:-1
5:7:11
1:0
8:8:12
2:0
7:8:12
1:0
7:7:12
1:0
7:8:12
1:0
7:7:12
1:0
8:8:12
2:0
7:7:12
1:0
8:7:12
2:0
7:8:12
1:0
7:8:12
1:0
7:6:12
1:0
7:8:12
1:0
7:8:12
1:0
7:7:12
1:0
7:8:12
1:0
0:6:12
-1:-1
5:8:11
1:0
7:8:12
1:0
7:7:12
1:0
7:8:12
1:0
7:7:12
1:0
8:7:12
2:0
7:8:12
1:0
7:8:12
1:0
7:8:12
1:0
7:8:12
1:0
7:8:12
1:0
6:7:12
1:-1
6:7:12
1:0
8:8:12
2:0
8:8:12
2:0
7:7:12
1:0
4:9:12
1:0
7:4:12
1:0
8:6:12
2:0
8:6:12
2:0
7:8:12
1:0
0:8:12
-1:0
8:8:11
2:-1
7:8:11
1:0
7:8:12
1:0
6:8:12
1:0
7:8:12
1:0
7:8:12
1:0
7:8:12
1:0
7:8:12
1:0
7:8:12
1:0
8:8:12
2:0
2:8:12
0:-1
7:7:12
1:0
2:4:12
0:-1
6:8:12
1:0
8:7:12
2:0
7:7:12
1:0
7:8:12
1:0
7:8:12
1:0
8:7:12
2:0
7:8:12
1:0
7:7:12
1:0
7:8:12
1:0
7:7:12
1:0
7:8:12
1:0
6:8:12
1:0
6:8:12
1:0
7:6:12
1:0
1:8:12
-1:0
7:8:11
1:0
8:7:12
2:-1
7:6:12
1:0
7:7:12
1:0
7:7:12
1:0
7:8:12
1:0
7:7:12
1:0
7:8:12
1:0
8:8:12
2:0
8:8:12
2:0
8:8:12
2:0
7:7:12
1:0
7:7:12
1:0
8:8:12
2:0
8:8:12
2:0
7:7:12
1:0
7:8:12
1:0
7:8:12
1:0
0:6:12
-1:-1
5:7:11
1:0
7:8:12
1:0
7:8:12
1:0
8:8:12
2:0
8:8:12
2:0
7:7:12
1:0
7:8:12
1:0
7:7:12
1:0
8:8:12
2:0
8:8:12
2:0
7:8:12
1:0
8:8:12
2:0
7:8:12
1:0
7:7:12
1:0
7:8:12
1:0
7:8:12
1:0
0:6:12
-1:-1
4:6:11
1:-1
6:7:11
1:0
8:8:12
2:0
7:8:12
1:0
7:8:12
1:0
8:8:12
2:0
8:6:12
2:-1
7:9:12
1:0
6:7:12
1:0
7:8:12
1:0
5:7:12
1:-1
7:8:12
1:0
0:7:12
-1:0
0:28:11
-1:-1
0:1:10
-1:-1
2:4:9
0:-1
0:2:9
-1:-1
2:5:8
0:-1
6:10:8
1:0
7:8:9
1:0
8:8:10
2:0
7:8:11
1:0
7:8:12
1:0
8:8:12
2:0
7:8:12
1:0
7:8:12
1:0
7:7:12
1:0
0:5:12
-1:-1
3:8:11
0:0
8:7:11
2:-1
7:8:11
1:0
6:5:12
1:0
7:8:12
1:0
7:8:12
1:0
7:5:12
1:-1
4:5:12
1:0
6:7:12
1:-1
6:8:12
1:0
8:7:12
2:0
7:8:12
1:0
7:7:12
1:0
7:8:12
1:0
8:7:12
2:0
8:8:12
2:0
8:7:12
2:0
5:9:12
1:0
8:8:12
2:0
7:7:12
1:0
7:7:12
1:0
7:8:12
1:0
8:8:12
2:0
8:5:12
2:0
7:5:12
1:0
7:7:12
1:0
7:8:12
1:0
7:8:12
1:0
7:8:12
1:0
7:8:12
1:0
7:8:12
1:0
7:8:12
1:0
7:9:12
1:0
7:7:12
1:-1
7:8:12
1:0
7:8:12
1:0
7:8:12
1:0
7:8:12
1:0
7:8:12
1:0
7:9:12
1:0
7:4:12
1:0
5:7:12
1:0
7:8:12
1:0
7:8:12
1:0
7:7:12
1:0
6:7:12
1:0
6:8:12
1:0
7:8:12
1:0
7:8:12
1:0
0:9:12
-1:0
6:9:11
1:-1
7:7:11
1:0
7:8:12
1:0
8:8:12
2:0
7:8:12
1:0
7:7:12
1:0
7:8:12
1:0
8:8:12
2:-1
7:5:12
1:0
7:8:12
1:0
7:7:12
1:0
7:8:12
1:0
8:7:12
2:0
7:8:12
1:0
7:7:12
1:0
7:8:12
1:0
2:8:12
0:0
7:8:12
1:0
7:8:12
1:0
7:7:12
1:0
7:8:12
1:0
7:8:12
1:0
7:8:12
1:0
7:8:12
1:0
1:4:12
-1:-1
7:7:11
1:0
8:7:12
2:0
7:8:12
1:0
7:9:12
1:0
6:7:12
1:0
6:8:12
1:0
7:7:12
1:0
7:9:12
1:0
7:8:12
1:0
7:7:12
1:0
7:7:12
1:0
7:8:12
1:0
7:8:12
1:0
7:8:12
1:0
7:8:12
1:0
7:8:12
1:0
0:6:12
-1:-1
5:8:11
1:0
7:8:12
1:0
7:8:12
1:0
7:8:12
1:0
7:8:12
1:0
7:8:12
1:0
8:8:12
2:0
7:8:12
1:-1
8:8:12
2:0
7:8:12
1:0
7:8:12
1:0
7:8:12
1:0
7:8:12
1:0
7:8:12
1:0
7:8:12
1:0
0:7:12
-1:-1
7:6:11
1:-1
7:8:11
1:0
7:7:12
1:0
7:8:12
1:0
8:8:12
2:0
7:8:12
1:0
7:9:12
1:0
2:7:12
0:0
8:8:12
2:0
7:8:12
1:0
8:8:12
2:0
7:7:12
1:0
7:8:12
1:0
7:8:12
1:0
7:8:12
1:0
7:8:12
1:0
0:4:12
-1:-1
5:8:11
1:0
0:4:12
-1:-1
1:8:11
-1:-1
7:9:10
1:-1
1:5:10
-1:-1
1:8:9
-1:-1
5:8:8
1:-1
0:20:8
-1:-1
0:9:7
-1:-1
0:5:6
-1:-1
2:5:5
0:-1
6:7:5
1:-1
7:8:5
1:0
7:8:6
1:0
7:8:7
1:0
7:8:8
1:0
7:8:9
1:0
7:8:10
1:0
7:8:11
1:0
0:6:12
-1:-1
3:4:11
0:-1
6:7:11
1:0
0:8:12
-1:0
7:9:11
1:-1
7:7:11
1:0
7:7:12
1:0
7:8:12
1:0
7:8:12
1:0
7:6:12
1:0
7:8:12
1:0
7:7:12
1:0
8:8:12
2:0
7:7:12
1:0
7:6:12
1:0
7:8:12
1:0
8:8:12
2:0
7:7:12
1:0
0:6:12
-1:-1
3:5:11
0:-1
7:8:11
1:0
7:8:12
1:0
8:7:12
2:0
8:8:12
2:0
7:7:12
1:0
7:7:12
1:0
7:7:12
1:0
7:8:12
1:0
7:8:12
1:0
7:8:12
1:0
7:8:12
1:0
7:8:12
1:0
7:8:12
1:0
7:8:12
1:0
8:8:12
2:0
0:4:12
-1:-1
6:8:11
1:0
7:7:12
1:0
7:8:12
1:0
7:7:12
1:0
7:7:12
1:0
7:8:12
1:0
7:9:12
1:0
7:8:12
1:0
7:7:12
1:0
8:7:12
2:0
7:7:12
1:0
7:7:12
1:-1
6:7:12
1:0
7:8:12
1:0
7:7:12
1:0
8:8:12
2:0
6:8:12
1:-1
3:5:12
0:-1
8:8:12
2:0
7:7:12
1:0
7:7:12
1:0
0:8:12
-1:0
6:8:11
1:-1
7:8:11
1:0
7:7:12
1:0
7:8:12
1:0
8:8:12
2:0
7:7:12
1:0
7:7:12
1:0
8:8:12
2:0
8:8:12
2:0
7:8:12
1:0
8:8:12
2:0
7:9:12
1:0
2:4:12
0:-1
8:8:12
2:0
7:8:12
1:0
8:8:12
2:0
7:7:12
1:0
7:7:12
1:0
7:8:12
1:0
7:8:12
1:0
7:8:12
1:0
7:8:12
1:0
6:8:12
1:0
6:8:12
1:0
7:7:12
1:0
7:8:12
1:0
8:8:12
2:0
2:8:12
0:-1
7:7:12
1:0
0:5:12
-1:-1
8:7:11
2:0
8:7:12
2:0
7:8:12
1:0
8:7:12
2:0
7:8:12
1:0
7:7:12
1:0
7:8:12
1:0
7:7:12
1:0
7:7:12
1:0
7:7:12
1:0
7:8:12
1:0
8:7:12
2:0
7:7:12
1:0
7:7:12
1:0
7:7:12
1:0
5:10:12
1:0
9:7:12
2:0
8:5:12
2:0
7:7:12
1:0
7:8:12
1:0
7:8:12
1:0
7:9:12
1:0
7:5:12
1:0
0:8:12
-1:0
7:9:11
1:-1
7:7:11
1:0
7:6:12
1:0
7:8:12
1:0
7:8:12
1:0
7:8:12
1:0
8:8:12
2:0
7:7:12
1:-1
7:8:12
1:0
7:6:12
1:0
2:5:12
0:-1
6:8:12
1:0
7:8:12
1:0
7:8:12
1:0
7:7:12
1:0
7:8:12
1:0
7:7:12
1:0
7:8:12
1:0
7:7:12
1:0
7:8:12
1:0
8:8:12
2:0
8:8:12
2:0
7:8:12
1:0
2:8:12
0:0
0:28:12
-1:-1
3:12:11
0:-1
9:8:11
2:0
7:7:12
1:0
8:7:12
2:0
0:5:12
-1:0
5:7:11
1:0
8:8:12
2:0
7:8:12
1:0
7:8:12
1:0
6:8:12
1:0
3:9:12
0:0
6:6:12
1:0
6:7:12
1:0
7:8:12
1:0
7:8:12
1:0
7:8:12
1:0
7:8:12
1:0
7:8:12
1:0
7:9:12
1:0
6:7:12
1:0
7:8:12
1:0
7:7:12
1:0
3:5:12
0:0
7:7:12
1:0
8:8:12
2:0
8:8:12
2:0
7:8:12
1:0
7:9:12
1:0
8:7:12
2:0
7:7:12
1:0
7:8:12
1:0
7:8:12
1:0
7:7:12
1:0
8:7:12
2:0
7:8:12
1:0
8:8:12
2:0
8:8:12
2:0
7:7:12
1:0
8:7:12
2:0
3:5:12
0:0
7:7:12
1:0
7:7:12
1:0
7:8:12
1:0
8:7:12
2:0
5:9:12
1:0
6:7:12
1:0
7:7:12
1:0
8:8:12
2:0
8:8:12
2:0
7:7:12
1:0
7:8:12
1:0
7:7:12
1:0
7:8:12
1:0
7:8:12
1:0
7:8:12
1:0
0:8:12
-1:0
2:5:11
0:-1
6:7:11
1:0
7:9:12
1:0
7:7:12
1:0
6:8:12
1:0
6:8:12
1:0
7:8:12
1:0
7:6:12
1:0
8:8:12
2:0
8:8:12
2:0
7:8:12
1:0
7:8:12
1:0
7:9:12
1:0
7:8:12
1:0
7:7:12
1:0
7:8:12
1:0
7:7:12
1:0
0:5:12
-1:0
7:7:11
1:0
8:8:12
2:0
7:8:12
1:0
3:8:12
0:-1
7:7:12
1:0
7:7:12
1:0
7:7:12
1:0
8:8:12
2:0
8:8:12
2:0
7:7:12
1:0
7:7:12
1:0
8:8:12
2:0
8:8:12
2:0
7:6:12
1:0
7:8:12
1:0
7:8:12
1:0
7:7:12
1:0
2:3:12
0:-1
8:8:12
2:0
7:9:12
1:0
2:7:12
0:0
6:8:12
1:0
7:8:12
1:0
7:8:12
1:0
8:8:12
2:0
7:8:12
1:0
8:8:12
2:0
7:8:12
1:0
7:8:12
1:0
8:8:12
2:0
7:8:12
1:0
8:8:12
2:0
7:8:12
1:0
0:6:12
-1:-1
8:8:11
2:0
7:7:12
1:0
7:8:12
1:0
7:8:12
1:0
7:8:12
1:0
8:8:12
2:0
7:8:12
1:0
8:8:12
2:0
7:8:12
1:0
7:8:12
1:0
8:8:12
2:0
7:7:12
1:0
7:8:12
1:0
8:7:12
2:0
8:8:12
2:0
7:7:12
1:0
0:4:12
-1:-1
8:7:11
2:0
7:9:12
1:0
3:7:12
0:-1
7:7:12
1:0
7:8:12
1:0
7:7:12
1:0
7:8:12
1:0
7:8:12
1:0
7:8:12
1:0
7:8:12
1:0
7:9:12
1:0
7:8:12
1:0
6:8:12
1:0
6:8:12
1:0
7:8:12
1:0
1:7:12
-1:0
4:8:11
1:-1
0:5:11
-1:-1
0:21:10
-1:-1
2:11:9
0:-1
0:6:9
-1:-1
3:7:8
0:-1
6:5:8
1:0
7:8:9
1:0
7:8:10
1:0
7:8:11
1:0
7:8:12
1:0
7:8:12
1:0
7:8:12
1:0
7:8:12
1:0
0:8:12
-1:0
3:8:11
0:-1
6:7:11
1:0
7:9:12
1:0
6:7:12
1:0
7:8:12
1:0
7:7:12
1:0
8:7:12
2:0
7:5:12
1:0
7:7:12
1:0
7:8:12
1:0
7:8:12
1:0
7:8:12
1:0
7:8:12
1:0
8:8:12
2:0
7:8:12
1:0
8:8:12
2:0
8:7:12
2:0
7:9:12
1:0
8:8:12
2:0
7:8:12
1:0
8:8:12
2:0
7:8:12
1:0
7:8:12
1:0
7:5:12
1:-1
5:7:12
1:0
7:8:12
1:0
7:8:12
1:0
7:8:12
1:0
7:8:12
1:0
7:7:12
1:0
7:7:12
1:0
7:8:12
1:0
8:8:12
2:0
7:7:12
1:-1
7:8:12
1:0
7:7:12
1:0
7:8:12
1:0
7:7:12
1:0
7:8:12
1:0
0:8:12
-1:0
0:4:11
-1:-1
5:7:10
1:0
7:8:11
1:0
8:8:12
2:0
7:6:12
1:0
0:7:12
-1:0
7:9:11
1:-1
7:7:11
1:0
7:8:12
1:0
8:8:12
2:0
7:9:12
1:-1
7:8:12
1:0
8:8:12
2:0
7:7:12
1:0
7:8:12
1:0
6:8:12
1:0
6:8:12
1:0
7:7:12
1:0
2:3:12
0:-1
8:8:12
2:0
8:8:12
2:0
8:8:12
2:0
8:8:12
2:0
7:8:12
1:0
7:8:12
1:0
8:8:12
2:0
0:7:12
-1:-1
8:9:11
2:0
8:8:12
2:0
6:8:12
1:0
6:8:12
1:0
7:8:12
1:0
7:7:12
1:0
7:7:12
1:0
8:8:12
2:0
3:4:12
0:-1
7:8:12
1:0
7:8:12
1:0
7:9:12
1:0
6:7:12
1:0
7:6:12
1:0
7:8:12
1:0
7:9:12
1:0
2:7:12
0:0
8:8:12
2:0
7:8:12
1:0
6:8:12
1:0
7:7:12
1:0
7:7:12
1:0
7:8:12
1:0
7:8:12
1:0
7:6:12
1:0
7:5:12
1:-1
7:8:12
1:0
7:7:12
1:0
7:8:12
1:0
7:7:12
1:0
7:7:12
1:0
7:7:12
1:0
7:7:12
1:0
8:7:12
2:0
5:9:12
1:0
6:7:12
1:0
7:7:12
1:0
7:8:12
1:0
7:8:12
1:0
7:7:12
1:0
7:8:12
1:0
7:7:12
1:0
0:5:12
-1:0
4:7:11
1:0
7:8:12
1:0
7:7:12
1:0
7:8:12
1:0
7:8:12
1:0
7:8:12
1:0
7:9:12
1:0
7:7:12
1:0
8:8:12
2:0
7:8:12
1:0
6:8:12
1:0
7:7:12
1:0
7:8:12
1:0
7:7:12
1:0
7:9:12
1:0
7:8:12
1:0
7:7:12
1:-1
7:5:12
1:0
7:7:12
1:0
7:8:12
1:0
0:8:12
-1:0
3:8:11
0:0
4:8:11
1:-1
0:5:11
-1:-1
0:28:10
-1:-1
0:0:9
-1:-1
0:5:8
-1:-1
6:9:7
1:0
8:7:8
2:0
7:8:9
1:0
7:8:10
1:0
7:7:11
1:0
7:8:12
1:0
7:7:12
1:0
7:8:12
1:0
7:7:12
1:0
0:8:12
-1:-1
4:6:11
1:0
7:8:12
1:0
6:7:12
1:0
7:8:12
1:0
7:8:12
1:0
8:9:12
2:0
7:8:12
1:0
7:7:12
1:0
7:8:12
1:0
7:7:12
1:0
7:8:12
1:0
7:8:12
1:0
7:8:12
1:0
7:8:12
1:0
7:8:12
1:0
7:9:12
1:0
3:6:12
0:-1
4:5:12
1:-1
7:8:12
1:0
7:7:12
1:0
7:7:12
1:0
8:8:12
2:0
8:8:12
2:0
6:8:12
1:0
6:8:12
1:0
7:7:12
1:0
7:8:12
1:0
7:7:12
1:0
7:8:12
1:0
8:7:12
2:0
7:8:12
1:0
7:7:12
1:0
7:8:12
1:0
3:8:12
0:0
3:4:12
0:-1
8:8:12
2:0
7:8:12
1:0
8:8:12
2:0
7:8:12
1:0
7:8:12
1:0
8:8:12
2:0
7:8:12
1:0
8:8:12
2:0
7:8:12
1:0
7:8:12
1:0
8:8:12
2:-1
6:8:12
1:0
7:8:12
1:0
7:9:12
1:0
6:8:12
1:0
6:6:12
1:-1
4:6:12
1:0
7:7:12
1:0
7:8:12
1:0
8:8:12
2:0
7:7:12
1:0
7:9:12
1:0
7:8:12
1:0
6:6:12
1:0
7:8:12
1:0
7:8:12
1:0
7:8:12
1:0
7:8:12
1:0
7:8:12
1:0
7:8:12
1:0
7:8:12
1:0
7:8:12
1:0
8:7:12
2:-1
7:5:12
1:0
7:8:12
1:0
7:8:12
1:0
7:8:12
1:0
7:8:12
1:0
7:8:12
1:0
8:7:12
2:0
7:8:12
1:0
7:7:12
1:0
0:8:12
-1:0
7:7:11
1:-1
6:7:11
1:0
7:8:12
1:0
7:8:12
1:0
0:7:12
-1:0
7:8:11
1:0
7:9:12
1:0
2:4:12
0:-1
6:8:12
1:0
7:8:12
1:0
7:8:12
1:0
7:8:12
1:0
7:8:12
1:0
8:7:12
2:0
7:8:12
1:0
8:8:12
2:0
7:7:12
1:0
7:7:12
1:0
7:8:12
1:0
8:8:12
2:0
7:7:12
1:0
7:8:12
1:0
7:8:12
1:0
8:8:12
2:0
3:4:12
0:-1
7:8:12
1:0
7:8:12
1:0
7:8:12
1:0
8:8:12
2:0
7:7:12
1:0
6:7:12
1:0
7:8:12
1:0
8:8:12
2:0
8:8:12
2:0
7:7:12
1:0
7:8:12
1:0
7:8:12
1:0
7:8:12
1:0
7:8:12
1:0
8:8:12
2:0
8:8:12
2:0
4:6:12
1:0
8:8:12
2:0
7:8:12
1:0
7:8:12
1:0
8:9:12
2:0
8:8:12
2:0
8:8:12
2:0
6:8:12
1:0
7:8:12
1:0
0:7:12
-1:-1
7:8:11
1:-1
7:7:11
1:0
0:9:12
-1:-1
0:24:11
-1:-1
5:9:10
1:0
6:8:11
1:0
7:8:12
1:0
7:8:12
1:0
8:7:12
2:0
7:8:12
1:0
7:8:12
1:0
8:8:12
2:0
8:8:12
2:0
2:6:12
0:-1
4:8:12
1:-1
6:6:12
1:0
7:9:12
1:0
6:7:12
1:0
8:7:12
2:0
0:5:12
-1:0
5:7:11
1:0
7:8:12
1:0
7:7:12
1:0
7:9:12
1:0
7:8:12
1:0
7:8:12
1:0
7:7:12
1:0
7:8:12
1:0
7:8:12
1:0
7:7:12
1:0
7:8:12
1:0
4:8:12
1:0
7:8:12
1:0
8:8:12
2:0
7:8:12
1:0
7:8:12
1:0
2:4:12
0:-1
7:8:12
1:0
7:7:12
1:0
7:8:12
1:0
7:8:12
1:0
7:8:12
1:0
8:7:12
2:0
8:8:12
2:0
8:8:12
2:0
7:8:12
1:0
8:8:12
2:0
2:8:12
0:0
7:7:12
1:0
7:8:12
1:0
7:8:12
1:0
7:7:12
1:0
7:7:12
1:0
2:4:12
0:-1
5:7:12
1:0
7:8:12
1:0
8:8:12
2:0
7:7:12
1:0
8:7:12
2:0
7:7:12
1:0
6:8:12
1:0
6:8:12
1:0
7:8:12
1:0
8:8:12
2:0
6:8:12
1:-1
6:8:12
1:0
7:6:12
1:0
8:8:12
2:0
7:7:12
1:0
7:8:12
1:0
6:8:12
1:0
2:4:12
0:-1
5:8:12
1:0
7:7:12
1:0
8:8:12
2:0
7:7:12
1:0
8:7:12
2:0
8:8:12
2:0
8:7:12
2:0
7:8:12
1:0
7:7:12
1:0
8:7:12
2:0
7:9:12
1:0
7:8:12
1:0
7:7:12
1:0
7:8:12
1:0
7:7:12
1:0
7:8:12
1:0
0:5:12
-1:0
7:7:11
1:0
8:7:12
2:0
7:8:12
1:0
7:7:12
1:0
7:8:12
1:0
7:8:12
1:0
6:8:12
1:0
6:8:12
1:0
7:7:12
1:0
7:9:12
1:-1
7:8:12
1:0
8:8:12
2:0
8:8:12
2:0
7:7:12
1:0
7:8:12
1:0
7:7:12
1:0
8:7:12
2:0
7:5:12
1:0
7:7:12
1:0
7:8:12
1:0
7:8:12
1:0
7:7:12
1:0
8:8:12
2:0
8:8:12
2:0
7:8:12
1:0
7:9:12
1:0
3:7:12
0:0
7:7:12
1:0
7:8:12
1:0
7:8:12
1:0
7:7:12
1:0
7:7:12
1:0
7:8:12
1:0
0:6:12
-1:-1
7:7:11
1:0
7:8:12
1:0
7:8:12
1:0
7:7:12
1:0
7:8:12
1:0
7:8:12
1:0
8:7:12
2:0
8:8:12
2:0
7:8:12
1:0
7:9:12
1:0
7:8:12
1:0
7:9:12
1:0
6:7:12
1:0
7:8:12
1:0
7:7:12
1:0
7:8:12
1:0
0:5:12
-1:0
4:6:11
1:0
8:8:12
2:0
7:7:12
1:0
7:8:12
1:0
8:8:12
2:0
5:8:12
1:0
5:8:12
1:0
0:8:12
-1:-1
0:30:11
-1:-1
0:0:10
-1:-1
0:4:9
-1:-1
5:7:8
1:0
7:8:9
1:0
7:8:10
1:0
7:7:11
1:0
7:7:12
1:0
7:8:12
1:0
7:8:12
1:0
7:8:12
1:0
7:8:12
1:0
0:8:12
-1:0
3:8:11
0:-1
5:7:11
1:0
7:7:12
1:0
2:5:12
0:0
6:8:12
1:0
7:8:12
1:0
7:8:12
1:0
7:8:12
1:0
0:8:12
-1:0
7:7:11
1:-1
7:8:11
1:0
7:8:12
1:0
7:8:12
1:0
7:8:12
1:0
7:8:12
1:0
7:8:12
1:0
0:6:12
-1:0
5:9:11
1:0
7:7:12
1:0
8:8:12
2:0
4:5:12
1:-1
7:8:12
1:0
7:7:12
1:0
7:9:12
1:0
7:8:12
1:0
7:7:12
1:0
7:8:12
1:0
7:7:12
1:0
7:8:12
1:0
7:7:12
1:0
8:7:12
2:0
7:7:12
1:0
8:7:12
2:0
7:8:12
1:0
5:7:12
1:0
8:8:12
2:0
7:8:12
1:0
3:4:12
0:-1
8:8:12
2:0
7:8:12
1:0
7:7:12
1:0
7:8:12
1:0
7:8:12
1:0
8:7:12
2:0
8:8:12
2:0
0:8:12
-1:0
5:8:11
1:-1
6:7:11
1:0
7:8:12
1:0
7:7:12
1:0
2:8:12
0:0
7:7:12
1:0
7:8:12
1:0
7:7:12
1:0
0:6:12
-1:-1
4:7:11
1:0
7:7:12
1:0
7:7:12
1:0
6:8:12
1:0
7:9:12
1:0
8:8:12
2:0
7:8:12
1:0
7:8:12
1:0
7:8:12
1:0
7:8:12
1:0
7:7:12
1:0
7:9:12
1:0
7:8:12
1:0
8:8:12
2:0
0:7:12
-1:0
7:9:11
1:-1
0:4:11
-1:-1
8:8:10
2:0
8:8:11
2:0
8:8:12
2:0
8:8:12
2:0
7:8:12
1:0
7:8:12
1:0
7:6:12
1:0
7:8:12
1:0
6:8:12
1:0
6:8:12
1:0
7:9:12
1:0
7:7:12
1:0
6:8:12
1:0
6:8:12
1:0
7:8:12
1:0
7:8:12
1:0
0:4:12
-1:-1
5:8:11
1:0
7:8:12
1:0
7:8:12
1:0
7:8:12
1:0
8:8:12
2:0
7:7:12
1:0
8:7:12
2:0
7:7:12
1:0
7:7:12
1:0
7:8:12
1:0
7:9:12
1:0
7:8:12
1:0
7:8:12
1:0
7:8:12
1:0
7:8:12
1:0
8:8:12
2:0
3:4:12
0:-1
7:8:12
1:0
7:8:12
1:0
8:8:12
2:0
7:8:12
1:0
7:6:12
1:0
7:9:12
1:0
7:8:12
1:0
7:7:12
1:0
7:8:12
1:0
8:8:12
2:0
7:8:12
1:-1
6:8:12
1:0
8:8:12
2:0
7:7:12
1:0
7:8:12
1:0
8:8:12
2:0
4:6:12
1:0
8:8:12
2:0
7:8:12
1:0
7:8:12
1:0
7:9:12
1:0
7:8:12
1:0
7:8:12
1:0
2:6:12
0:-1
4:8:12
1:-1
0:9:12
-1:0
0:29:11
-1:-1
3:12:10
0:-1
6:8:10
1:0
7:8:11
1:0
7:8:12
1:0
7:8:12
1:0
7:8:12
1:0
7:8:12
1:0
2:4:12
0:-1
6:8:12
1:0
6:8:12
1:0
0:9:12
-1:0
8:7:11
2:-1
6:8:11
1:0
7:7:12
1:0
7:7:12
1:0
7:7:12
1:0
7:7:12
1:0
7:8:12
1:0
7:8:12
1:0
8:8:12
2:0
7:8:12
1:0
7:8:12
1:0
7:8:12
1:0
8:8:12
2:0
8:7:12
2:-1
7:5:12
1:0
0:7:12
-1:-1
7:8:11
1:0
7:8:12
1:0
7:8:12
1:0
8:7:12
2:0
8:8:12
2:0
8:8:12
2:0
6:8:12
1:0
7:8:12
1:0
7:8:12
1:0
7:8:12
1:0
7:8:12
1:0
7:8:12
1:0
7:8:12
1:0
7:8:12
1:0
0:4:12
-1:-1
8:8:11
2:0
3:8:12
0:-1
7:7:12
1:0
7:8:12
1:0
8:7:12
2:0
8:8:12
2:0
7:8:12
1:0
0:8:12
-1:0
7:7:11
1:-1
7:8:11
1:0
7:7:12
1:0
7:8:12
1:0
7:8:12
1:0
6:8:12
1:0
6:8:12
1:0
7:8:12
1:0
0:6:12
-1:-1
0:7:11
-1:0
7:8:10
1:0
7:8:11
1:0
6:8:12
1:0
7:9:12
1:0
7:8:12
1:0
7:9:12
1:0
6:7:12
1:0
7:7:12
1:0
8:7:12
2:0
7:7:12
1:0
7:7:12
1:0
8:8:12
2:0
8:8:12
2:0
7:6:12
1:0
7:8:12
1:0
8:9:12
2:0
4:6:12
1:-1
8:8:12
2:0
7:7:12
1:0
7:8:12
1:0
7:8:12
1:0
7:8:12
1:0
7:8:12
1:0
7:8:12
1:0
7:8:12
1:0
7:8:12
1:0
7:8:12
1:0
0:8:12
-1:0
7:9:11
1:-1
7:7:11
1:0
7:8:12
1:0
7:9:12
1:0
2:5:12
0:-1
5:7:12
1:0
6:8:12
1:0
6:8:12
1:0
7:7:12
1:0
7:7:12
1:0
7:8:12
1:0
7:8:12
1:0
7:8:12
1:0
7:8:12
1:0
7:7:12
1:0
7:7:12
1:0
7:8:12
1:0
7:7:12
1:0
7:8:12
1:0
7:7:12
1:0
8:8:12
2:0
0:5:12
-1:-1
5:7:11
1:0
7:8:12
1:0
8:8:12
2:0
8:8:12
2:0
7:6:12
1:0
7:8:12
1:0
7:8:12
1:0
7:8:12
1:0
7:6:12
1:0
8:8:12
2:0
0:8:12
-1:0
7:8:11
1:-1
7:8:11
1:0
7:8:12
1:0
7:8:12
1:0
7:8:12
1:0
0:5:12
-1:-1
7:7:11
1:0
7:8:12
1:0
7:8:12
1:0
7:9:12
1:0
8:7:12
2:0
7:8:12
1:0
7:8:12
1:0
7:7:12
1:0
7:7:12
1:0
7:8:12
1:0
7:8:12
1:0
7:9:12
1:0
4:9:12
1:0
7:8:12
1:0
0:9:12
-1:0
0:33:11
-1:-1
0:6:10
-1:-1
5:7:9
1:0
6:8:10
1:0
8:7:11
2:0
7:8:12
1:0
7:7:12
1:0
7:7:12
1:0
8:8:12
2:0
7:8:12
1:0
7:7:12
1:0
2:6:12
0:-1
4:7:12
1:-1
7:6:12
1:0
6:8:12
1:0
6:8:12
1:0
7:8:12
1:0
8:8:12
2:0
7:8:12
1:0
8:8:12
2:0
6:8:12
1:0
6:8:12
1:0
7:8:12
1:0
7:7:12
1:0
7:7:12
1:0
7:8:12
1:0
7:8:12
1:0
7:8:12
1:0
2:7:12
0:-1
5:5:12
1:0
7:8:12
1:0
8:8:12
2:0
8:8:12
2:0
7:8:12
1:0
7:8:12
1:0
8:8:12
2:0
8:6:12
2:0
7:8:12
1:0
7:8:12
1:0
8:8:12
2:0
7:7:12
1:0
8:7:12
2:0
7:8:12
1:0
7:8:12
1:0
7:7:12
1:0
0:6:12
-1:-1
5:8:11
1:0
7:8:12
1:0
7:9:12
1:0
7:6:12
1:0
7:8:12
1:0
7:8:12
1:0
6:8:12
1:0
7:8:12
1:0
7:8:12
1:0
7:8:12
1:0
7:8:12
1:0
8:8:12
2:-1
6:7:12
1:0
7:7:12
1:0
8:8:12
2:0
6:9:12
1:0
5:6:12
1:-1
4:5:12
1:-1
7:7:12
1:0
7:8:12
1:0
7:8:12
1:0
7:7:12
1:0
7:8:12
1:0
0:8:12
-1:0
6:8:11
1:-1
7:7:11
1:0
7:7:12
1:0
7:8:12
1:0
7:8:12
1:0
7:7:12
1:0
7:7:12
1:0
7:8:12
1:0
0:7:12
-1:0
5:9:11
1:0
8:4:12
2:0
8:8:12
2:0
8:5:12
2:-1
7:8:12
1:0
8:8:12
2:0
8:8:12
2:0
7:7:12
1:0
7:7:12
1:0
7:8:12
1:0
7:8:12
1:0
0:7:12
-1:0
6:7:11
1:-1
7:9:11
1:0
6:7:12
1:0
7:8:12
1:0
0:7:12
-1:0
7:9:11
1:0
8:7:12
2:-1
7:5:12
1:0
7:7:12
1:0
8:9:12
2:0
8:8:12
2:0
8:8:12
2:0
7:7:12
1:0
7:7:12
1:0
8:8:12
2:0
8:8:12
2:0
7:7:12
1:0
7:7:12
1:0
8:8:12
2:0
8:8:12
2:0
7:7:12
1:0
7:8:12
1:0
7:8:12
1:0
0:6:12
-1:-1
4:6:11
1:0
8:8:12
2:0
8:9:12
2:0
8:8:12
2:0
8:8:12
2:0
7:7:12
1:0
7:8:12
1:0
7:7:12
1:0
8:8:12
2:0
7:7:12
1:0
7:7:12
1:0
7:8:12
1:0
7:7:12
1:0
7:8:12
1:0
7:8:12
1:0
7:8:12
1:0
0:6:12
-1:-1
4:8:11
1:0
6:8:12
1:0
8:7:12
2:0
8:8:12
2:0
8:8:12
2:0
7:8:12
1:0
8:8:12
2:0
6:8:12
1:0
7:7:12
1:0
7:8:12
1:0
8:7:12
2:0
4:8:12
1:0
6:7:12
1:0
1:22:12
-1:-1
2:10:11
0:-1
0:3:11
-1:-1
2:4:10
0:-1
6:9:10
1:-1
9:7:10
2:-1
7:5:10
1:0
7:6:11
1:0
7:8:12
1:0
7:7:12
1:0
7:7:12
1:0
7:8:12
1:0
7:8:12
1:0
6:8:12
1:0
5:7:12
1:0
5:8:12
1:0
6:7:12
1:0
7:8:12
1:0
7:8:12
1:0
7:8:12
1:0
7:8:12
1:0
7:8:12
1:0
8:8:12
2:0
8:4:12
2:0
5:7:12
1:0
8:9:12
2:0
8:8:12
2:0
7:8:12
1:0
7:8:12
1:0
7:8:12
1:0
0:7:12
-1:0
7:8:11
1:0
7:8:12
1:0
7:8:12
1:0
7:7:12
1:0
7:8:12
1:0
7:7:12
1:0
6:8:12
1:0
7:7:12
1:0
8:8:12
2:0
2:4:12
0:-1
6:8:12
1:0
7:8:12
1:0
7:8:12
1:0
7:7:12
1:0
7:7:12
1:0
7:8:12
1:0
8:7:12
2:0
5:9:12
1:0
6:7:12
1:0
7:7:12
1:0
8:8:12
2:0
8:8:12
2:0
7:7:12
1:0
7:8:12
1:0
7:7:12
1:0
7:8:12
1:0
7:5:12
1:-1
5:7:12
1:0
7:8:12
1:0
7:7:12
1:-1
7:8:12
1:0
7:7:12
1:0
7:8:12
1:0
0:7:12
-1:0
7:8:11
1:0
8:7:12
2:0
7:8:12
1:0
6:7:12
1:0
7:8:12
1:0
7:7:12
1:0
7:8:12
1:0
8:8:12
2:0
7:7:12
1:0
7:8:12
1:0
7:5:12
1:-1
5:7:12
1:0
8:8:12
2:0
7:8:12
1:0
7:8:12
1:0
7:9:12
1:0
7:8:12
1:0
6:7:12
1:0
7:7:12
1:0
7:9:12
1:0
7:8:12
1:0
8:8:12
2:0
7:7:12
1:0
7:7:12
1:0
8:8:12
2:0
8:8:12
2:0
7:6:12
1:0
3:6:12
0:0
7:9:12
1:0
7:8:12
1:0
7:7:12
1:0
7:8:12
1:0
7:8:12
1:0
4:8:12
1:0
8:8:12
2:0
7:8:12
1:0
8:8:12
2:0
7:8:12
1:0
7:8:12
1:0
8:8:12
2:0
7:8:12
1:0
8:8:12
2:0
7:8:12
1:0
0:6:12
-1:-1
5:8:11
1:0
7:7:12
1:0
7:7:12
1:0
7:8:12
1:0
8:8:12
2:0
7:8:12
1:-1
8:8:12
2:0
7:8:12
1:0
8:8:12
2:0
8:8:12
2:0
8:8:12
2:0
8:8:12
2:0
7:8:12
1:0
8:8:12
2:0
7:7:12
1:0
7:8:12
1:0
2:5:12
0:-1
6:8:12
1:0
7:8:12
1:0
7:8:12
1:0
8:8:12
2:0
7:7:12
1:-1
7:8:12
1:0
7:7:12
1:0
7:8:12
1:0
7:8:12
1:0
7:8:12
1:0
7:8:12
1:0
7:8:12
1:0
7:8:12
1:0
7:8:12
1:0
8:8:12
2:0
7:7:12
1:0
2:4:12
0:-1
8:8:12
2:-1
8:6:12
2:0
5:8:12
1:0
0:23:12
-1:-1
0:10:11
-1:-1
0:1:10
-1:-1
3:6:9
0:-1
6:8:9
1:0
7:7:10
1:0
7:8:11
1:0
7:7:12
1:0
8:7:12
2:0
8:8:12
2:0
7:8:12
1:0
0:5:12
-1:0
8:7:11
2:0
5:7:12
1:-1
5:8:12
1:0
7:9:12
1:0
6:8:12
1:0
7:8:12
1:0
7:8:12
1:0
7:8:12
1:0
7:8:12
1:0
7:8:12
1:0
7:7:12
1:0
7:8:12
1:0
7:7:12
1:0
7:7:12
1:0
7:7:12
1:0
7:8:12
1:0
7:7:12
1:0
2:4:12
0:-1
6:7:12
1:0
5:10:12
1:0
7:7:12
1:0
7:8:12
1:0
7:7:12
1:0
7:8:12
1:0
7:7:12
1:0
6:8:12
1:0
7:7:12
1:0
8:8:12
2:0
8:8:12
2:0
7:7:12
1:0
7:7:12
1:0
8:8:12
2:0
8:8:12
2:0
7:7:12
1:0
2:5:12
0:-1
6:9:12
1:0
7:8:12
1:0
8:7:12
2:0
7:8:12
1:0
7:8:12
1:0
8:8:12
2:0
8:8:12
2:0
6:8:12
1:0
7:8:12
1:0
7:8:12
1:0
7:6:12
1:0
7:8:12
1:0
6:8:12
1:0
6:8:12
1:0
8:8:12
2:0
8:8:12
2:0
2:5:12
0:0
5:6:12
1:0
7:8:12
1:0
0:8:12
-1:0
6:8:11
1:-1
7:7:11
1:0
0:8:12
-1:0
6:8:11
1:-1
7:8:11
1:0
7:7:12
1:0
7:8:12
1:0
7:8:12
1:0
7:7:12
1:0
7:7:12
1:0
7:8:12
1:0
7:8:12
1:0
7:7:12
1:0
0:6:12
-1:0
5:9:11
1:0
7:7:12
1:0
8:7:12
2:-1
7:8:12
1:0
7:8:12
1:0
7:8:12
1:0
8:8:12
2:0
7:7:12
1:0
7:7:12
1:0
8:8:12
2:0
8:8:12
2:0
6:8:12
1:0
6:8:12
1:0
8:8:12
2:0
7:7:12
1:0
7:8:12
1:0
3:7:12
0:-1
4:5:12
1:-1
7:8:12
1:0
6:8:12
1:0
8:7:12
2:0
8:8:12
2:0
7:8:12
1:0
7:8:12
1:0
8:8:12
2:0
7:8:12
1:0
8:8:12
2:0
7:8:12
1:0
7:8:12
1:0
8:8:12
2:0
7:7:12
1:0
7:7:12
1:0
7:8:12
1:0
4:6:12
1:-1
5:7:12
1:0
8:7:12
2:0
8:8:12
2:0
8:8:12
2:0
7:8:12
1:0
8:8:12
2:0
7:8:12
1:0
8:8:12
2:0
7:7:12
1:0
7:7:12
1:0
7:8:12
1:0
7:8:12
1:0
8:8:12
2:0
7:7:12
1:0
7:8:12
1:0
7:8:12
1:0
5:5:12
1:-1
4:5:12
1:0
6:8:12
1:0
6:8:12
1:0
7:8:12
1:0
7:8:12
1:0
7:6:12
1:0
7:8:12
1:0
7:9:12
1:0
6:9:12
1:0
6:7:12
1:0
8:7:12
2:0
0:8:12
-1:0
7:8:11
1:-1
4:7:11
1:0
0:13:12
-1:-1
0:27:11
-1:0
4:10:10
1:0
7:8:11
1:0
8:6:12
2:-1
7:5:12
1:0
7:5:12
1:0
7:8:12
1:0
7:7:12
1:0
8:7:12
2:0
8:8:12
2:0
5:10:12
1:0
6:8:12
1:0
7:7:12
1:0
6:8:12
1:0
7:7:12
1:0
7:8:12
1:0
8:8:12
2:0
7:7:12
1:0
7:7:12
1:0
7:8:12
1:0
6:8:12
1:0
7:5:12
1:-1
5:7:12
1:0
7:9:12
1:0
7:8:12
1:0
7:7:12
1:0
7:7:12
1:0
8:8:12
2:0
7:9:12
1:0
7:8:12
1:0
7:8:12
1:0
7:8:12
1:0
7:8:12
1:0
7:8:12
1:0
7:7:12
1:0
7:8:12
1:0
7:7:12
1:0
7:8:12
1:0
7:4:12
1:0
7:8:12
1:0
8:8:12
2:0
7:8:12
1:0
7:8:12
1:0
8:8:12
2:0
7:7:12
1:-1
7:8:12
1:0
7:8:12
1:0
7:7:12
1:0
7:7:12
1:0
7:8:12
1:0
0:8:12
-1:0
7:7:11
1:-1
7:8:11
1:0
8:8:12
2:0
7:8:12
1:0
2:3:12
0:-1
0:7:12
-1:0
7:8:11
1:-1
7:8:11
1:0
7:8:12
1:0
8:8:12
2:0
6:8:12
1:-1
7:8:12
1:0
8:8:12
2:0
7:7:12
1:0
8:7:12
2:0
0:7:12
-1:0
7:9:11
1:-1
7:7:11
1:0
6:7:12
1:0
7:8:12
1:0
7:8:12
1:0
8:8:12
2:0
7:5:12
1:0
8:6:12
2:0
8:8:12
2:0
7:7:12
1:0
7:8:12
1:0
7:8:12
1:0
7:8:12
1:0
8:8:12
2:0
7:7:12
1:0
8:7:12
2:0
7:8:12
1:0
7:7:12
1:0
7:8:12
1:0
7:7:12
1:0
7:8:12
1:0
7:7:12
1:0
0:8:12
-1:0
3:5:11
0:-1
7:8:11
1:0
8:8:12
2:0
7:7:12
1:0
7:7:12
1:0
7:9:12
1:0
6:8:12
1:0
7:7:12
1:0
7:8:12
1:0
7:7:12
1:0
7:8:12
1:0
7:7:12
1:0
7:8:12
1:0
7:7:12
1:0
7:8:12
1:0
7:7:12
1:0
7:7:12
1:0
7:5:12
1:-1
6:8:12
1:0
8:8:12
2:0
7:8:12
1:0
0:7:12
-1:0
5:9:11
1:0
7:7:12
1:0
7:8:12
1:0
8:7:12
2:0
7:8:12
1:0
7:7:12
1:0
7:8:12
1:0
8:7:12
2:0
7:7:12
1:0
7:7:12
1:0
7:8:12
1:0
7:7:12
1:0
0:6:12
-1:-1
5:7:11
1:0
8:8:12
2:0
8:8:12
2:0
7:6:12
1:-1
7:9:12
1:0
7:8:12
1:0
7:7:12
1:-1
7:8:12
1:0
7:8:12
1:0
7:7:12
1:0
7:8:12
1:0
7:9:12
1:0
8:7:12
2:0
0:7:12
-1:-1
1:8:11
-1:-1
7:9:10
1:-1
8:5:10
2:0
0:6:11
-1:-1
5:5:10
1:-1
2:8:10
0:0
6:7:10
1:-1
0:28:10
-1:-1
0:17:9
-1:-1
4:5:8
1:-1
7:6:8
1:0
6:8:9
1:0
8:8:10
2:0
7:7:11
1:0
3:7:12
0:-1
7:6:12
1:0
6:7:12
1:0
7:7:12
1:0
7:8:12
1:0
4:7:12
1:-1
5:7:12
1:0
7:7:12
1:0
7:7:12
1:0
7:8:12
1:0
7:8:12
1:0
7:8:12
1:0
7:8:12
1:0
7:8:12
1:0
7:7:12
1:0
8:7:12
2:0
7:8:12
1:0
0:6:12
-1:0
5:8:11
1:0
7:8:12
1:0
7:8:12
1:0
7:8:12
1:0
7:9:12
1:0
6:8:12
1:0
7:8:12
1:0
8:7:12
2:0
7:8:12
1:0
7:7:12
1:0
7:9:12
1:0
7:8:12
1:0
7:8:12
1:0
7:8:12
1:0
8:8:12
2:0
7:8:12
1:0
7:5:12
1:0
7:8:12
1:0
7:7:12
1:0
7:8:12
1:0
7:8:12
1:0
7:8:12
1:0
7:8:12
1:0
8:8:12
2:0
8:6:12
2:-1
8:8:12
2:0
7:7:12
1:0
7:8:12
1:0
7:8:12
1:0
7:7:12
1:0
7:7:12
1:0
7:8:12
1:0
6:8:12
1:0
2:4:12
0:-1
5:7:12
1:0
8:7:12
2:0
7:9:12
1:0
6:8:12
1:0
6:8:12
1:0
6:8:12
1:0
7:7:12
1:0
7:8:12
1:0
7:7:12
1:0
7:8:12
1:0
0:8:12
-1:0
6:8:11
1:-1
7:7:11
1:0
7:8:12
1:0
7:7:12
1:0
7:8:12
1:0
0:5:12
-1:-1
5:8:11
1:0
7:8:12
1:0
0:7:12
-1:0
5:9:11
1:0
7:7:12
1:0
6:8:12
1:0
7:7:12
1:0
8:8:12
2:0
7:7:12
1:0
8:7:12
2:0
8:8:12
2:0
8:8:12
2:0
7:8:12
1:0
7:8:12
1:0
7:7:12
1:0
7:8:12
1:0
7:7:12
1:-1
4:6:12
1:0
7:9:12
1:0
7:7:12
1:0
6:8:12
1:0
7:7:12
1:0
7:8:12
1:0
7:8:12
1:0
7:8:12
1:0
7:8:12
1:0
7:8:12
1:0
7:8:12
1:0
7:8:12
1:0
7:8:12
1:0
7:8:12
1:0
7:8:12
1:0
7:9:12
1:0
3:4:12
0:-1
7:8:12
1:0
7:6:12
1:-1
7:9:12
1:0
7:8:12
1:0
7:6:12
1:0
8:8:12
2:0
7:8:12
1:0
7:8:12
1:0
7:8:12
1:0
7:8:12
1:0
6:8:12
1:0
6:8:12
1:0
0:8:12
-1:0
6:8:11
1:-1
7:7:11
1:0
7:8:12
1:0
2:3:12
0:-1
8:8:12
2:0
7:8:12
1:-1
8:8:12
2:0
7:7:12
1:0
7:8:12
1:0
7:7:12
1:0
7:8:12
1:0
7:8:12
1:0
7:8:12
1:0
7:8:12
1:0
7:8:12
1:0
8:8:12
2:0
7:7:12
1:0
7:8:12
1:0
1:7:12
-1:-1
7:8:11
1:-1
5:8:11
1:0
0:7:12
-1:-1
0:24:11
-1:-1
0:4:10
-1:-1
0:3:9
-1:-1
3:4:8
0:-1
7:9:8
1:0
7:7:9
1:0
7:8:10
1:0
7:7:11
1:0
8:7:12
2:0
7:7:12
1:0
0:5:12
-1:-1
5:8:11
1:0
7:8:12
1:0
2:7:12
0:-1
4:8:12
1:-1
8:8:12
2:0
6:8:12
1:0
7:8:12
1:0
7:8:12
1:0
7:8:12
1:0
7:8:12
1:0
7:8:12
1:0
6:8:12
1:0
6:8:12
1:0
7:8:12
1:0
7:7:12
1:0
7:7:12
1:0
0:7:12
-1:0
5:8:11
1:0
7:9:12
1:0
3:7:12
0:0
7:7:12
1:0
7:8:12
1:0
7:8:12
1:0
7:6:12
1:0
7:8:12
1:0
7:8:12
1:0
8:6:12
2:-1
7:7:12
1:0
7:7:12
1:0
8:8:12
2:0
8:8:12
2:0
7:7:12
1:0
7:7:12
1:0
7:8:12
1:0
7:5:12
1:0
7:7:12
1:0
7:8:12
1:0
7:8:12
1:0
7:7:12
1:0
7:8:12
1:0
8:7:12
2:0
8:8:12
2:0
8:8:12
2:0
6:8:12
1:0
7:8:12
1:0
7:8:12
1:0
7:8:12
1:0
7:8:12
1:0
6:8:12
1:0
6:8:12
1:0
7:7:12
1:0
3:5:12
0:-1
6:7:12
1:0
6:8:12
1:0
6:8:12
1:0
7:7:12
1:0
7:7:12
1:0
7:8:12
1:0
6:8:12
1:0
7:8:12
1:0
0:8:12
-1:0
7:7:11
1:-1
7:8:11
1:0
8:7:12
2:0
6:4:12
1:0
6:7:12
1:0
8:7:12
2:0
7:8:12
1:0
7:5:12
1:0
5:7:12
1:0
4:8:12
1:0
8:8:12
2:0
8:7:12
2:0
7:8:12
1:0
7:8:12
1:0
7:8:12
1:0
8:8:12
2:0
8:8:12
2:0
7:7:12
1:0
8:7:12
2:0
8:8:12
2:0
6:8:12
1:0
6:8:12
1:0
7:9:12
1:0
6:7:12
1:0
0:6:12
-1:-1
2:7:11
0:0
6:8:11
1:0
7:7:12
1:0
7:8:12
1:0
8:8:12
2:0
7:8:12
1:0
8:8:12
2:0
7:8:12
1:0
7:8:12
1:0
8:8:12
2:0
7:8:12
1:0
8:8:12
2:0
7:8:12
1:0
7:8:12
1:0
8:8:12
2:0
8:8:12
2:0
3:3:12
0:-1
7:9:12
1:0
8:8:12
2:0
7:8:12
1:0
8:8:12
2:0
7:8:12
1:0
7:8:12
1:0
8:8:12
2:0
7:8:12
1:0
7:8:12
1:0
6:8:12
1:0
7:7:12
1:0
7:7:12
1:0
7:8:12
1:0
7:7:12
1:0
7:8:12
1:0
0:7:12
-1:0
4:7:11
1:0
8:7:12
2:0
7:8:12
1:0
6:8:12
1:0
7:8:12
1:0
7:8:12
1:0
7:8:12
1:0
7:8:12
1:0
7:8:12
1:0
7:8:12
1:0
6:8:12
1:0
6:8:12
1:0
7:7:12
1:0
5:7:12
1:0
4:8:12
1:0
2:6:12
0:-1
0:29:12
-1:-1
0:1:11
-1:-1
0:0:10
-1:-1
4:2:9
1:-1
2:1:9
0:-1
0:0:9
-1:-1
3:3:8
0:0
0:7:8
-1:-1
3:3:7
0:-1
6:8:7
1:0
7:7:8
1:0
7:8:9
1:0
7:7:10
1:0
0:6:11
-1:-1
4:6:10
1:0
7:7:11
1:0
7:8:12
1:0
7:8:12
1:0
5:7:12
1:-1
4:8:12
1:0
6:8:12
1:0
6:7:12
1:0
7:8:12
1:0
8:7:12
2:0
7:8:12
1:0
7:8:12
1:0
7:8:12
1:0
7:9:12
1:0
7:8:12
1:0
7:7:12
1:0
7:8:12
1:0
2:4:12
0:-1
7:7:12
1:0
7:8:12
1:0
7:7:12
1:0
8:7:12
2:0
7:9:12
1:0
8:8:12
2:0
7:8:12
1:0
8:8:12
2:0
7:7:12
1:0
7:7:12
1:0
6:8:12
1:0
7:7:12
1:0
8:8:12
2:0
8:8:12
2:0
7:7:12
1:0
7:7:12
1:0
0:5:12
-1:-1
4:6:11
1:0
8:7:12
2:0
8:8:12
2:0
7:8:12
1:0
7:9:12
1:0
7:8:12
1:0
7:8:12
1:0
8:9:12
2:0
8:8:12
2:0
8:8:12
2:0
7:6:12
1:0
8:8:12
2:0
7:7:12
1:0
7:7:12
1:0
7:7:12
1:0
0:8:12
-1:0
7:7:11
1:-1
4:6:11
1:0
8:8:12
2:0
8:8:12
2:0
2:7:12
0:-1
6:8:12
1:0
8:8:12
2:0
7:8:12
1:0
7:9:12
1:0
7:8:12
1:0
7:7:12
1:0
7:8:12
1:0
6:8:12
1:0
6:8:12
1:0
7:8:12
1:0
7:7:12
1:0
7:7:12
1:0
8:8:12
2:0
4:6:12
1:0
7:7:12
1:0
7:7:12
1:0
7:8:12
1:0
7:8:12
1:0
7:7:12
1:0
7:8:12
1:0
7:7:12
1:0
7:8:12
1:0
8:7:12
2:0
7:8:12
1:0
7:7:12
1:0
8:7:12
2:0
7:7:12
1:0
7:7:12
1:0
7:7:12
1:0
7:8:12
1:0
0:6:12
-1:-1
5:7:11
1:0
7:9:12
1:0
7:8:12
1:0
6:8:12
1:0
7:7:12
1:0
7:8:12
1:0
7:7:12
1:0
8:8:12
2:0
7:8:12
1:0
8:8:12
2:0
7:8:12
1:0
7:8:12
1:0
8:8:12
2:0
7:8:12
1:0
8:8:12
2:0
8:8:12
2:0
4:6:12
1:0
7:9:12
1:0
7:8:12
1:0
7:8:12
1:0
7:7:12
1:0
7:7:12
1:0
7:8:12
1:0
8:7:12
2:0
8:8:12
2:0
8:8:12
2:0
8:8:12
2:0
7:7:12
1:0
8:7:12
2:0
7:8:12
1:0
7:8:12
1:0
7:7:12
1:0
8:7:12
2:0
3:5:12
0:0
7:8:12
1:0
7:8:12
1:0
7:8:12
1:0
8:8:12
2:0
8:8:12
2:0
7:7:12
1:0
8:9:12
2:0
8:8:12
2:0
7:8:12
1:0
7:8:12
1:0
7:8:12
1:0
6:8:12
1:0
7:7:12
1:0
0:8:12
-1:0
7:8:11
1:-1
2:8:11
0:0
0:7:11
-1:-1
0:27:10
-1:-1
0:11:9
-1:-1
5:8:8
1:0
7:7:9
1:0
8:8:10
2:0
8:8:11
2:0
7:7:12
1:0
7:7:12
1:0
2:5:12
0:-1
6:7:12
1:0
8:8:12
2:0
7:8:12
1:0
2:8:12
0:-1
6:7:12
1:0
0:8:12
-1:0
7:8:11
1:-1
7:8:11
1:0
7:8:12
1:0
7:8:12
1:0
7:8:12
1:0
8:8:12
2:0
7:7:12
1:0
7:8:12
1:0
8:7:12
2:0
7:8:12
1:0
0:5:12
-1:0
4:6:11
1:0
8:8:12
2:0
8:9:12
2:0
7:9:12
1:0
8:7:12
2:0
7:8:12
1:0
7:7:12
1:0
7:8:12
1:0
7:7:12
1:0
0:8:12
-1:0
7:8:11
1:-1
7:8:11
1:0
8:8:12
2:0
7:8:12
1:0
8:8:12
2:0
7:8:12
1:0
2:5:12
0:-1
6:7:12
1:0
7:8:12
1:0
7:7:12
1:-1
7:8:12
1:0
8:8:12
2:0
7:8:12
1:0
8:8:12
2:0
7:8:12
1:0
6:8:12
1:0
6:8:12
1:0
7:7:12
1:0
7:8:12
1:0
7:7:12
1:0
7:8:12
1:0
6:8:12
1:0
6:8:12
1:0
2:4:12
0:-1
6:8:12
1:0
7:8:12
1:0
6:8:12
1:0
6:8:12
1:0
8:6:12
2:-1
7:8:12
1:0
7:8:12
1:0
7:9:12
1:0
7:7:12
1:0
8:8:12
2:0
7:7:12
1:0
8:7:12
2:0
7:8:12
1:0
7:7:12
1:0
7:8:12
1:0
8:7:12
2:0
8:7:12
2:-1
7:5:12
1:0
8:8:12
2:0
5:10:12
1:0
7:7:12
1:0
6:8:12
1:0
7:7:12
1:0
8:8:12
2:0
7:8:12
1:0
7:8:12
1:0
8:8:12
2:0
7:8:12
1:0
8:8:12
2:0
7:8:12
1:0
6:8:12
1:0
6:8:12
1:0
8:6:12
2:-1
0:6:12
-1:0
5:9:11
1:0
4:9:12
1:0
6:8:12
1:0
7:8:12
1:0
7:8:12
1:0
7:8:12
1:0
7:8:12
1:0
7:8:12
1:0
7:8:12
1:0
7:8:12
1:0
7:8:12
1:0
7:8:12
1:0
7:8:12
1:0
7:8:12
1:0
7:8:12
1:0
0:6:12
-1:-1
5:8:11
1:0
7:9:12
1:0
7:8:12
1:0
7:8:12
1:0
7:8:12
1:0
7:8:12
1:0
7:8:12
1:0
7:8:12
1:0
7:8:12
1:0
6:8:12
1:0
6:8:12
1:0
7:7:12
1:0
7:7:12
1:0
7:8:12
1:0
7:8:12
1:0
7:8:12
1:0
3:5:12
0:0
7:8:12
1:0
8:9:12
2:0
0:8:12
-1:0
7:8:11
1:-1
7:8:11
1:0
7:8:12
1:0
7:8:12
1:0
7:8:12
1:0
7:8:12
1:0
7:8:12
1:0
7:7:12
1:0
7:7:12
1:0
0:8:12
-1:0
3:8:11
0:0
4:8:11
1:-1
0:5:11
-1:-1
2:28:10
0:-1
5:12:10
1:-1
8:4:10
2:0
8:5:11
2:0
7:7:12
1:0
8:8:12
2:0
7:8:12
1:0
7:8:12
1:0
7:8:12
1:0
7:8:12
1:0
6:9:12
1:0
5:9:12
1:0
8:8:12
2:0
7:8:12
1:0
6:7:12
1:0
7:7:12
1:0
8:8:12
2:0
8:8:12
2:0
7:6:12
1:0
7:5:12
1:0
5:7:12
1:0
7:8:12
1:0
8:7:12
2:0
8:8:12
2:0
8:8:12
2:0
7:6:12
1:0
7:8:12
1:0
8:8:12
2:0
7:9:12
1:0
7:8:12
1:0
7:8:12
1:0
7:8:12
1:0
7:8:12
1:0
7:8:12
1:0
7:7:12
1:0
7:8:12
1:0
2:4:12
0:-1
6:8:12
1:0
7:6:12
1:0
7:8:12
1:0
7:8:12
1:0
7:8:12
1:0
7:8:12
1:0
8:8:12
2:0
3:8:12
0:-1
7:7:12
1:0
7:8:12
1:0
7:7:12
1:0
7:8:12
1:0
7:7:12
1:0
0:8:12
-1:0
7:7:11
1:-1
7:8:11
1:0
2:4:12
0:-1
8:8:12
2:0
7:8:12
1:0
7:7:12
1:-1
6:7:12
1:0
7:8:12
1:0
7:8:12
1:0
8:8:12
2:0
6:8:12
1:-1
7:8:12
1:0
8:8:12
2:0
7:7:12
1:0
8:7:12
2:0
0:8:12
-1:0
6:7:11
1:-1
6:8:11
1:0
7:8:12
1:0
7:7:12
1:0
2:4:12
0:-1
6:8:12
1:0
8:9:12
2:0
8:8:12
2:0
8:8:12
2:0
7:7:12
1:0
7:8:12
1:0
7:8:12
1:0
7:8:12
1:0
8:8:12
2:0
7:7:12
1:0
7:7:12
1:0
7:7:12
1:0
7:7:12
1:0
7:8:12
1:0
7:7:12
1:0
7:8:12
1:0
2:4:12
0:-1
7:7:12
1:0
7:9:12
1:0
7:7:12
1:0
7:9:12
1:0
7:8:12
1:0
7:8:12
1:0
7:9:12
1:0
6:7:12
1:0
7:7:12
1:0
7:8:12
1:0
7:7:12
1:0
7:8:12
1:0
8:7:12
2:0
7:8:12
1:0
7:7:12
1:0
7:8:12
1:0
0:4:12
-1:-1
4:6:11
1:0
8:8:12
2:0
7:8:12
1:0
7:8:12
1:0
7:7:12
1:0
7:7:12
1:0
7:9:12
1:0
7:7:12
1:0
7:8:12
1:0
7:7:12
1:0
7:8:12
1:0
8:7:12
2:0
7:8:12
1:0
7:7:12
1:0
7:8:12
1:0
7:7:12
1:0
0:6:12
-1:-1
4:7:11
1:0
7:9:12
1:0
8:8:12
2:0
7:8:12
1:0
7:9:12
1:0
2:7:12
0:0
7:7:12
1:0
7:8:12
1:0
6:8:12
1:0
7:7:12
1:0
8:8:12
2:0
8:8:12
2:0
7:8:12
1:0
7:8:12
1:0
7:8:12
1:0
0:8:12
-1:0
0:4:11
-1:-1
4:6:10
1:0
7:10:11
1:0
2:7:12
0:0
7:7:12
1:-1
0:8:12
-1:0
0:40:11
-1:-1
3:12:10
0:-1
5:8:10
1:0
7:8:11
1:0
8:8:12
2:0
7:7:12
1:0
7:7:12
1:0
7:8:12
1:0
8:8:12
2:0
8:8:12
2:0
6:10:12
1:0
4:8:12
1:0
6:8:12
1:0
6:7:12
1:0
8:5:12
2:-1
6:8:12
1:0
8:8:12
2:0
7:8:12
1:0
7:8:12
1:0
6:9:12
1:0
6:7:12
1:0
7:7:12
1:0
7:7:12
1:0
7:8:12
1:0
7:7:12
1:0
7:8:12
1:0
7:7:12
1:0
8:7:12
2:0
7:9:12
1:0
8:8:12
2:0
7:7:12
1:0
2:5:12
0:-1
7:8:12
1:0
7:7:12
1:0
6:8:12
1:0
7:7:12
1:0
8:8:12
2:0
8:8:12
2:0
7:8:12
1:0
7:8:12
1:0
7:8:12
1:0
8:8:12
2:0
7:7:12
1:0
7:7:12
1:0
2:8:12
0:-1
7:7:12
1:0
7:8:12
1:0
7:8:12
1:0
2:4:12
0:-1
7:9:12
1:0
7:8:12
1:0
7:7:12
1:0
7:8:12
1:0
7:8:12
1:0
7:8:12
1:0
7:8:12
1:0
6:8:12
1:0
6:8:12
1:0
7:8:12
1:0
7:8:12
1:0
6:9:12
1:0
6:7:12
1:0
7:7:12
1:0
7:8:12
1:0
7:7:12
1:0
0:4:12
-1:-1
4:7:11
1:0
7:9:12
1:0
0:8:12
-1:0
6:8:11
1:-1
7:7:11
1:0
7:7:12
1:0
7:7:12
1:0
7:7:12
1:0
7:8:12
1:0
7:8:12
1:0
7:7:12
1:0
7:7:12
1:0
7:8:12
1:0
7:8:12
1:0
0:8:12
-1:0
6:8:11
1:-1
8:8:11
2:0
3:4:12
0:-1
7:9:12
1:0
7:7:12
1:0
7:7:12
1:0
8:8:12
2:0
7:7:12
1:0
7:7:12
1:0
7:7:12
1:0
0:8:12
-1:0
7:7:11
1:-1
7:8:11
1:0
7:7:12
1:0
7:8:12
1:0
7:7:12
1:0
7:7:12
1:0
7:8:12
1:0
7:7:12
1:0
0:6:12
-1:-1
4:6:11
1:0
8:8:12
2:0
7:8:12
1:0
8:8:12
2:0
7:8:12
1:0
8:8:12
2:0
7:8:12
1:0
7:8:12
1:0
8:8:12
2:0
8:8:12
2:0
7:7:12
1:-1
7:8:12
1:0
7:8:12
1:0
7:8:12
1:0
7:8:12
1:0
7:7:12
1:0
3:5:12
0:0
7:9:12
1:0
8:8:12
2:0
7:8:12
1:0
6:8:12
1:0
0:6:12
-1:-1
7:9:11
1:-1
7:8:11
1:0
7:8:12
1:0
7:8:12
1:0
7:8:12
1:0
7:9:12
1:0
7:6:12
1:0
8:8:12
2:0
8:8:12
2:0
7:7:12
1:0
8:8:12
2:0
4:5:12
1:-1
8:8:12
2:0
7:8:12
1:0
7:8:12
1:0
7:7:12
1:-1
7:8:12
1:0
7:7:12
1:0
5:8:12
1:-1
4:9:12
1:0
0:8:12
-1:-1
0:29:11
-1:-1
4:5:10
1:-1
0:8:10
-1:-1
4:7:9
1:-1
7:6:9
1:0
0:5:10
-1:0
7:7:9
1:0
8:8:10
2:0
7:8:11
1:0
7:7:12
1:0
7:8:12
1:0
7:7:12
1:0
7:8:12
1:0
2:9:12
0:-1
5:7:12
1:0
0:8:12
-1:0
6:8:11
1:-1
7:8:11
1:0
7:8:12
1:0
7:7:12
1:0
8:8:12
2:0
7:8:12
1:0
8:7:12
2:0
3:4:12
0:0
7:8:12
1:0
7:8:12
1:0
7:8:12
1:0
7:8:12
1:0
7:7:12
1:0
7:7:12
1:0
7:9:12
1:0
8:7:12
2:0
7:8:12
1:0
7:7:12
1:0
7:8:12
1:0
8:7:12
2:0
0:8:12
-1:0
6:8:11
1:-1
7:8:11
1:0
8:6:12
2:-1
4:5:12
1:-1
8:9:12
2:0
7:8:12
1:0
8:7:12
2:0
7:8:12
1:0
7:7:12
1:0
8:7:12
2:0
7:9:12
1:0
7:6:12
1:0
7:8:12
1:0
7:8:12
1:0
7:8:12
1:0
7:8:12
1:0
6:8:12
1:0
6:8:12
1:0
7:8:12
1:0
0:4:12
-1:-1
5:9:11
1:0
0:7:12
-1:0
7:8:11
1:-1
8:8:11
2:0
8:7:12
2:-1
8:9:12
2:0
4:9:12
1:0
6:7:12
1:0
8:6:12
2:-1
7:8:12
1:0
8:8:12
2:0
6:8:12
1:0
6:8:12
1:0
7:9:12
1:0
7:7:12
1:0
8:7:12
2:0
8:7:12
2:0
7:5:12
1:0
7:7:12
1:0
7:8:12
1:0
7:8:12
1:0
7:8:12
1:0
8:7:12
2:0
5:9:12
1:0
7:8:12
1:0
7:8:12
1:0
6:8:12
1:0
7:8:12
1:0
7:8:12
1:0
7:8:12
1:0
7:8:12
1:0
8:7:12
2:0
7:8:12
1:0
0:5:12
-1:0
4:7:11
1:0
7:8:12
1:0
7:7:12
1:0
8:7:12
2:0
7:8:12
1:0
2:7:12
0:0
6:9:12
1:0
7:7:12
1:0
6:8:12
1:0
7:8:12
1:0
7:8:12
1:0
7:8:12
1:0
7:8:12
1:0
7:10:12
1:0
8:7:12
2:0
7:8:12
1:0
7:6:12
1:-1
6:8:12
1:0
8:8:12
2:0
7:7:12
1:0
7:7:12
1:0
0:7:12
-1:-1
7:8:11
1:0
7:8:12
1:0
8:8:12
2:0
7:8:12
1:0
8:8:12
2:0
7:6:12
1:0
7:8:12
1:0
8:8:12
2:0
7:7:12
1:0
7:8:12
1:0
0:8:12
-1:0
7:5:11
1:-1
4:5:11
1:0
6:8:12
1:0
7:7:12
1:0
7:10:12
1:0
7:7:12
1:0
8:8:12
2:0
7:8:12
1:0
7:7:12
1:0
8:8:12
2:0
7:7:12
1:0
7:7:12
1:0
7:8:12
1:0
7:10:12
1:0
7:8:12
1:0
6:9:12
1:0
7:8:12
1:0
8:5:12
2:0
0:8:12
-1:0
1:6:11
-1:-1
5:9:10
1:-1
0:18:10
-1:-1
0:20:9
-1:-1
0:3:8
-1:-1
0:4:7
-1:-1
5:6:6
1:0
5:7:7
1:0
7:7:8
1:0
7:8:9
1:0
7:7:10
1:0
7:8:11
1:0
8:7:12
2:0
7:8:12
1:0
7:7:12
1:0
4:7:12
1:-1
3:8:12
0:-1
6:6:12
1:0
7:6:12
1:0
7:8:12
1:0
0:6:12
-1:-1
7:7:11
1:0
8:7:12
2:0
7:7:12
1:0
6:7:12
1:0
7:8:12
1:0
7:7:12
1:0
7:8:12
1:0
7:7:12
1:0
7:7:12
1:0
7:7:12
1:0
7:8:12
1:0
7:8:12
1:0
5:10:12
1:0
8:8:12
2:0
7:7:12
1:0
7:7:12
1:0
7:6:12
1:-1
8:8:12
2:0
7:6:12
1:0
7:7:12
1:0
7:9:12
1:0
7:8:12
1:0
7:7:12
1:0
7:7:12
1:0
7:8:12
1:0
7:8:12
1:0
7:7:12
1:0
7:7:12
1:0
7:9:12
1:0
7:8:12
1:0
7:8:12
1:0
7:8:12
1:0
7:8:12
1:0
2:4:12
0:-1
6:8:12
1:0
6:8:12
1:0
7:7:12
1:0
8:8:12
2:0
7:8:12
1:0
7:8:12
1:0
8:8:12
2:-1
6:8:12
1:0
8:8:12
2:0
8:8:12
2:0
0:8:12
-1:0
6:9:11
1:-1
7:7:11
1:0
7:8:12
1:0
8:8:12
2:0
7:8:12
1:0
0:5:12
-1:-1
4:6:11
1:0
0:8:12
-1:0
6:8:11
1:-1
7:7:11
1:0
8:8:12
2:0
7:8:12
1:0
7:7:12
1:0
7:7:12
1:0
7:8:12
1:0
7:8:12
1:0
8:7:12
2:0
5:9:12
1:0
6:7:12
1:0
7:8:12
1:0
7:8:12
1:0
7:8:12
1:0
0:6:12
-1:-1
5:8:11
1:0
7:8:12
1:0
8:8:12
2:0
7:7:12
1:0
7:7:12
1:0
7:8:12
1:0
6:8:12
1:0
6:8:12
1:0
7:7:12
1:0
7:8:12
1:0
3:7:12
0:0
7:7:12
1:0
8:7:12
2:0
7:7:12
1:0
7:8:12
1:0
7:7:12
1:0
7:8:12
1:0
3:5:12
0:0
7:8:12
1:0
7:8:12
1:0
7:9:12
1:0
8:8:12
2:0
8:8:12
2:0
8:8:12
2:0
7:7:12
1:0
7:7:12
1:0
8:8:12
2:0
7:9:12
1:0
7:8:12
1:0
7:8:12
1:0
7:8:12
1:0
7:8:12
1:0
7:8:12
1:0
2:4:12
0:-1
6:8:12
1:0
6:8:12
1:0
7:9:12
1:0
7:7:12
1:0
7:8:12
1:0
6:7:12
1:0
8:7:12
2:0
7:8:12
1:0
7:9:12
1:0
7:8:12
1:0
7:8:12
1:0
7:8:12
1:0
7:7:12
1:0
7:7:12
1:0
7:8:12
1:0
7:7:12
1:0
7:5:12
1:-1
5:7:12
1:0
7:8:12
1:0
7:8:12
1:0
0:8:12
-1:0
1:8:11
-1:-1
7:7:10
1:-1
2:9:10
0:0
7:7:10
1:-1
1:20:10
-1:-1
2:15:9
0:-1
2:2:9
0:-1
6:3:9
1:0
8:2:10
2:-1
11:4:10
2:0
12:4:11
2:0
11:4:12
2:0
12:5:12
2:0
3:2:12
0:-1
1:3:12
-1:-1
0:4:11
-1:-1
4:6:10
1:-1
0:2:10
-1:-1
0:3:9
-1:-1
2:4:8
0:-1
7:8:8
1:0
8:8:9
2:0
7:7:10
1:0
7:8:11
1:0
7:8:12
1:0
7:7:12
1:0
7:7:12
1:0
7:8:12
1:0
7:8:12
1:0
4:8:12
1:-1
4:6:12
1:0
7:8:12
1:0
6:8:12
1:0
6:8:12
1:0
7:8:12
1:0
7:8:12
1:0
0:6:12
-1:-1
4:6:11
1:0
7:8:12
1:0
7:7:12
1:0
8:9:12
2:0
7:8:12
1:0
7:8:12
1:0
7:8:12
1:0
7:8:12
1:0
7:8:12
1:0
4:8:12
1:0
8:8:12
2:0
7:8:12
1:0
7:7:12
1:0
7:8:12
1:0
7:7:12
1:0
0:8:12
-1:0
0:4:11
-1:-1
8:8:10
2:0
8:6:11
2:-1
7:8:11
1:0
7:9:12
1:0
7:7:12
1:0
7:8:12
1:0
7:7:12
1:0
7:8:12
1:0
7:7:12
1:0
7:8:12
1:0
7:8:12
1:0
7:8:12
1:0
7:8:12
1:0
8:8:12
2:0
8:6:12
2:-1
7:9:12
1:0
0:5:12
-1:0
7:7:11
1:0
8:7:12
2:0
7:8:12
1:0
7:7:12
1:0
6:7:12
1:0
7:8:12
1:0
7:7:12
1:0
7:8:12
1:0
0:7:12
-1:0
5:10:11
1:-1
7:7:11
1:0
7:8:12
1:0
7:8:12
1:0
7:7:12
1:0
7:8:12
1:0
7:7:12
1:0
7:7:12
1:0
8:5:12
2:-1
7:8:12
1:0
7:7:12
1:0
7:8:12
1:0
8:7:12
2:0
8:8:12
2:0
7:8:12
1:0
8:8:12
2:0
7:7:12
1:-1
7:8:12
1:0
8:7:12
2:0
7:8:12
1:0
8:8:12
2:0
8:6:12
2:-1
7:8:12
1:0
7:8:12
1:0
8:8:12
2:0
0:4:12
-1:-1
5:8:11
1:0
7:8:12
1:0
6:8:12
1:0
7:9:12
1:0
7:7:12
1:0
7:8:12
1:0
8:8:12
2:0
3:8:12
0:-1
7:7:12
1:0
6:7:12
1:0
7:8:12
1:0
7:8:12
1:0
7:8:12
1:0
7:8:12
1:0
7:8:12
1:0
7:8:12
1:0
0:4:12
-1:-1
4:6:11
1:0
8:8:12
2:0
7:8:12
1:0
7:8:12
1:0
8:7:12
2:0
7:8:12
1:0
7:9:12
1:0
7:8:12
1:0
7:8:12
1:0
7:8:12
1:0
7:8:12
1:0
7:8:12
1:0
7:8:12
1:0
7:8:12
1:0
7:8:12
1:0
6:8:12
1:0
2:4:12
0:-1
7:7:12
1:0
7:7:12
1:0
8:8:12
2:0
7:7:12
1:0
7:8:12
1:0
8:8:12
2:0
7:8:12
1:-1
6:8:12
1:0
8:8:12
2:0
7:8:12
1:0
7:8:12
1:0
7:8:12
1:0
7:8:12
1:0
7:8:12
1:0
7:8:12
1:0
8:8:12
2:0
8:4:12
2:0
6:7:12
1:0
7:8:12
1:0
6:8:12
1:-1
4:8:12
1:0
6:8:12
1:0
0:26:12
-1:-1
2:9:11
0:-1
0:6:11
-1:-1
2:7:10
0:-1
1:3:10
-1:-1
4:6:9
1:0
8:8:10
2:0
7:8:11
1:0
7:8:12
1:0
7:8:12
1:0
8:7:12
2:0
8:8:12
2:0
8:8:12
2:0
4:7:12
1:-1
5:8:12
1:0
7:7:12
1:0
6:8:12
1:0
7:7:12
1:0
7:8:12
1:0
8:8:12
2:0
8:8:12
2:0
7:8:12
1:0
7:4:12
1:0
6:7:12
1:0
7:8:12
1:0
7:8:12
1:0
7:8:12
1:0
7:9:12
1:0
7:8:12
1:0
7:7:12
1:0
7:8:12
1:0
7:8:12
1:0
7:8:12
1:0
7:8:12
1:0
7:8:12
1:0
7:8:12
1:0
7:8:12
1:0
7:9:12
1:0
0:5:12
-1:0
4:6:11
1:0
8:8:12
2:0
7:8:12
1:0
7:6:12
1:0
7:8:12
1:0
7:8:12
1:0
7:8:12
1:0
7:8:12
1:0
7:7:12
1:0
7:8:12
1:0
7:8:12
1:0
7:8:12
1:0
7:7:12
1:0
7:7:12
1:0
7:9:12
1:0
7:8:12
1:0
0:4:12
-1:-1
7:8:11
1:0
7:8:12
1:0
8:8:12
2:0
6:7:12
1:-1
7:7:12
1:0
7:9:12
1:0
8:7:12
2:0
0:7:12
-1:-1
6:9:11
1:0
8:8:12
2:0
8:8:12
2:0
7:7:12
1:0
7:8:12
1:0
6:8:12
1:0
7:7:12
1:0
7:7:12
1:0
7:8:12
1:0
2:4:12
0:-1
6:8:12
1:0
7:8:12
1:0
7:8:12
1:0
7:8:12
1:0
7:8:12
1:0
7:8:12
1:0
7:8:12
1:0
7:8:12
1:0
7:8:12
1:0
6:8:12
1:0
6:8:12
1:0
7:8:12
1:0
7:8:12
1:0
7:8:12
1:0
7:7:12
1:0
8:7:12
2:0
7:5:12
1:0
7:7:12
1:0
7:9:12
1:0
6:7:12
1:0
7:8:12
1:0
7:8:12
1:0
8:6:12
2:0
8:9:12
2:0
6:8:12
1:0
7:7:12
1:0
7:8:12
1:0
7:7:12
1:0
7:8:12
1:0
7:7:12
1:0
7:8:12
1:0
7:7:12
[...]
8:8:12
2:0
7:7:12
1:0
2:9:12
0:0
5:8:12
1:-1
6:7:12
1:0
7:9:12
1:0
6:7:12
1:0
7:8:12
1:0
7:7:12
1:0
7:8:12
1:0
0:5:12
-1:0
4:6:11
1:0
7:7:12
1:0
7:7:12
1:0
7:8:12
1:0
7:7:12
1:0
7:7:12
1:0
8:8:12
2:0
7:8:12
1:0
6:8:12
1:0
7:7:12
1:0
8:8:12
2:0
7:8:12
1:0
8:8:12
2:0
8:8:12
2:0
8:8:12
2:0
0:8:12
-1:0
0:6:11
-1:-1
5:8:10
1:0
7:9:11
1:0
8:8:12
2:0
8:8:12
2:0
7:8:12
1:0
7:8:12
1:0
8:8:12
2:0
7:7:12
1:0
7:8:12
1:0
7:8:12
1:0
7:8:12
1:0
7:8:12
1:0
7:7:12
1:0
7:7:12
1:0
8:8:12
2:0
8:8:12
2:0
8:4:12
2:0
7:8:12
1:0
7:7:12
1:0
7:8:12
1:0
6:8:12
1:0
6:8:12
1:0
7:8:12
1:0
7:8:12
1:0
0:8:12
-1:0
4:7:11
1:0
7:8:12
1:0
7:8:12
1:0
6:8:12
1:0
7:8:12
1:0
7:9:12
1:0
6:7:12
1:0
7:7:12
1:0
0:5:12
-1:-1
4:6:11
1:0
7:9:12
1:0
7:7:12
1:0
7:8:12
1:0
7:7:12
1:0
7:8:12
1:0
7:7:12
1:0
8:7:12
2:0
7:9:12
1:0
7:8:12
1:0
6:8:12
1:0
6:8:12
1:0
7:8:12
1:0
7:7:12
1:0
7:7:12
1:0
7:8:12
1:0
0:6:12
-1:-1
7:7:11
1:0
8:7:12
2:0
7:7:12
1:0
7:8:12
1:0
7:9:12
1:0
6:7:12
1:0
7:8:12
1:0
7:8:12
1:0
0:8:12
-1:0
6:8:11
1:-1
7:8:11
1:0
7:8:12
1:0
7:7:12
1:0
7:7:12
1:0
7:8:12
1:0
7:8:12
1:0
8:6:12
2:-1
7:5:12
1:0
8:8:12
2:0
8:8:12
2:0
7:8:12
1:0
7:8:12
1:0
7:8:12
1:0
7:8:12
1:0
7:9:12
1:0
8:7:12
2:0
7:7:12
1:0
7:8:12
1:0
7:8:12
1:0
7:7:12
1:0
7:7:12
1:0
7:8:12
1:0
7:7:12
1:0
0:5:12
-1:0
5:8:11
1:0
7:9:12
1:0
7:8:12
1:0
8:8:12
2:0
7:7:12
1:0
7:8:12
1:0
7:8:12
1:0
7:8:12
1:0
7:8:12
1:0
6:8:12
1:0
7:7:12
1:0
7:8:12
1:0
7:7:12
1:0
7:8:12
1:0
8:7:12
2:0
7:8:12
1:0
0:5:12
-1:0
4:6:11
1:0
8:8:12
2:0
7:8:12
1:0
5:7:12
1:-1
4:7:12
1:0
0:10:12
-1:-1
0:26:11
-1:-1
5:9:10
1:0
6:8:11
1:0
7:8:12
1:0
7:8:12
1:0
7:8:12
1:0
7:8:12
1:0
0:6:12
-1:-1
4:7:11
1:0
7:8:12
1:0
0:7:12
-1:-1
4:8:11
1:0
7:8:12
1:0
6:8:12
1:0
7:7:12
1:0
7:8:12
1:0
7:8:12
1:0
7:5:12
1:0
7:8:12
1:0
7:6:12
1:0
7:8:12
1:0
8:8:12
2:0
7:7:12
1:0
7:7:12
1:0
8:8:12
2:0
2:4:12
0:-1
6:8:12
1:0
8:7:12
2:0
7:9:12
1:0
8:8:12
2:0
7:7:12
1:0
7:7:12
1:0
8:8:12
2:0
8:8:12
2:0
6:8:12
1:0
7:8:12
1:0
7:8:12
1:0
7:8:12
1:0
7:8:12
1:0
7:8:12
1:0
7:8:12
1:0
8:8:12
2:0
4:6:12
1:0
8:8:12
2:0
7:8:12
1:0
7:8:12
1:0
7:8:12
1:0
7:8:12
1:0
7:8:12
1:0
7:8:12
1:0
7:9:12
1:0
6:7:12
1:0
8:7:12
2:0
7:8:12
1:0
7:8:12
1:0
0:7:12
-1:0
6:8:11
1:-1
6:7:11
1:0
0:6:12
-1:-1
5:8:11
1:0
6:8:12
1:0
6:8:12
1:0
7:7:12
1:0
7:7:12
1:0
7:8:12
1:0
0:8:12
-1:0
6:8:11
1:-1
7:8:11
1:0
7:6:12
1:0
7:8:12
1:0
7:7:12
1:0
7:8:12
1:0
8:7:12
2:0
8:8:12
2:0
8:8:12
2:0
7:7:12
1:0
3:4:12
0:-1
7:8:12
1:0
7:8:12
1:0
7:6:12
1:0
7:9:12
1:0
7:7:12
1:0
7:8:12
1:0
7:8:12
1:0
7:8:12
1:0
7:8:12
1:0
7:8:12
1:0
7:8:12
1:0
0:8:12
-1:0
7:9:11
1:-1
7:7:11
1:0
7:8:12
1:0
8:9:12
2:0
4:5:12
1:-1
8:8:12
2:0
6:8:12
1:0
6:8:12
1:0
7:8:12
1:0
7:7:12
1:0
7:7:12
1:0
7:8:12
1:0
7:8:12
1:0
7:8:12
1:0
7:7:12
1:0
7:7:12
1:0
7:8:12
1:0
7:7:12
1:0
7:8:12
1:0
7:7:12
1:0
8:8:12
2:0
3:4:12
0:-1
7:8:12
1:0
7:8:12
1:0
7:8:12
1:0
7:8:12
1:0
7:6:12
1:0
7:8:12
1:0
7:8:12
1:0
7:8:12
1:0
7:7:12
1:0
7:8:12
1:0
8:8:12
2:0
7:7:12
1:0
7:8:12
1:0
7:8:12
1:0
7:8:12
1:0
0:7:12
-1:0
4:7:11
1:0
7:8:12
1:0
0:8:12
-1:0
6:8:11
1:-1
7:8:11
1:0
6:8:12
1:0
7:8:12
1:0
7:8:12
1:0
7:7:12
1:0
7:7:12
1:0
7:8:12
1:0
7:8:12
1:0
8:8:12
2:0
4:8:12
1:0
7:9:12
1:0
0:8:12
-1:0
0:28:11
-1:-1
6:10:10
1:0
0:6:11
-1:0
7:7:10
1:0
8:7:11
2:0
7:8:12
1:0
7:8:12
1:0
7:6:12
1:0
7:8:12
1:0
7:8:12
1:0
6:9:12
1:0
5:9:12
1:0
8:8:12
2:0
6:8:12
1:0
7:8:12
1:0
7:8:12
1:0
7:8:12
1:0
7:8:12
1:0
7:8:12
1:0
0:7:12
-1:-1
4:6:11
1:0
8:8:12
2:0
7:8:12
1:0
7:8:12
1:0
7:8:12
1:0
7:8:12
1:0
7:8:12
1:0
7:9:12
1:0
8:7:12
2:0
7:7:12
1:0
7:8:12
1:0
7:8:12
1:0
7:7:12
1:0
8:7:12
2:0
7:7:12
1:0
7:8:12
1:0
0:5:12
-1:-1
7:7:11
1:0
7:8:12
1:0
7:7:12
1:0
7:8:12
1:0
7:7:12
1:0
7:8:12
1:0
7:7:12
1:0
7:8:12
1:0
8:8:12
2:0
7:8:12
1:0
8:8:12
2:0
8:8:12
2:0
7:7:12
1:0
7:8:12
1:0
7:7:12
1:0
7:8:12
1:0
0:6:12
-1:-1
5:7:11
1:0
8:8:12
2:0
6:7:12
1:-1
6:8:12
1:0
8:7:12
2:0
7:8:12
1:0
6:9:12
1:-1
6:8:12
1:0
7:8:12
1:0
8:6:12
2:-1
8:8:12
2:0
7:8:12
1:0
7:8:12
1:0
6:7:12
1:0
6:8:12
1:0
6:8:12
1:0
7:7:12
1:0
2:4:12
0:-1
6:8:12
1:0
7:8:12
1:0
7:8:12
1:0
7:8:12
1:0
8:8:12
2:0
3:8:12
0:-1
7:7:12
1:0
7:8:12
1:0
8:8:12
2:0
7:8:12
1:0
8:8:12
2:0
8:8:12
2:0
7:7:12
1:0
7:7:12
1:0
7:8:12
1:0
8:8:12
2:0
7:5:12
1:0
7:8:12
1:0
6:8:12
1:0
6:8:12
1:0
7:7:12
1:0
0:8:12
-1:0
7:8:11
1:0
8:6:12
2:-1
7:8:12
1:0
8:8:12
2:0
7:8:12
1:0
8:8:12
2:0
8:8:12
2:0
8:8:12
2:0
8:8:12
2:0
7:8:12
1:0
8:8:12
2:0
3:4:12
0:-1
7:7:12
1:0
7:8:12
1:0
7:7:12
1:0
7:8:12
1:0
7:8:12
1:0
7:8:12
1:0
7:8:12
1:0
8:8:12
2:0
7:8:12
1:0
8:8:12
2:0
7:8:12
1:0
7:8:12
1:0
8:8:12
2:0
6:8:12
1:0
7:7:12
1:0
8:7:12
2:0
7:5:12
1:0
7:7:12
1:0
7:8:12
1:0
7:8:12
1:0
7:8:12
1:0
7:8:12
1:0
7:7:12
1:0
0:8:12
-1:0
7:9:11
1:-1
7:8:11
1:0
7:8:12
1:0
7:8:12
1:0
7:8:12
1:0
7:8:12
1:0
7:8:12
1:0
6:8:12
1:0
0:4:12
-1:-1
8:8:11
2:0
0:5:12
-1:0
4:7:11
1:-1
2:8:11
0:-1
0:15:11
-1:-1
0:13:10
-1:-1
0:4:9
-1:-1
5:8:8
1:0
9:8:9
2:0
8:8:10
2:0
8:8:11
2:0
8:8:12
2:0
0:5:12
-1:0
5:7:11
1:0
8:8:12
2:0
7:7:12
1:0
2:8:12
0:-1
4:6:12
1:-1
5:7:12
1:0
7:8:12
1:0
7:7:12
1:0
7:8:12
1:0
7:8:12
1:0
7:8:12
1:0
7:8:12
1:0
8:8:12
2:0
7:7:12
1:0
8:7:12
2:0
7:7:12
1:0
7:8:12
1:0
7:5:12
1:-1
6:7:12
1:0
8:8:12
2:0
7:8:12
1:0
7:9:12
1:0
8:7:12
2:0
7:8:12
1:0
7:7:12
1:0
8:7:12
2:0
7:7:12
1:0
8:7:12
2:0
7:8:12
1:0
8:8:12
2:0
7:8:12
1:0
8:8:12
2:0
7:8:12
1:0
7:8:12
1:0
2:4:12
0:-1
7:9:12
1:0
8:8:12
2:0
7:9:12
1:0
7:8:12
1:0
8:8:12
2:0
8:6:12
2:-1
7:8:12
1:0
8:8:12
2:0
8:8:12
2:0
7:8:12
1:0
7:7:12
1:0
7:7:12
1:0
7:8:12
1:0
7:8:12
1:0
0:6:12
-1:-1
6:8:11
1:-1
0:4:11
-1:-1
5:7:10
1:0
7:8:11
1:0
6:9:12
1:-1
6:6:12
1:0
8:7:12
2:0
7:7:12
1:0
8:8:12
2:0
7:7:12
1:0
7:8:12
1:0
7:7:12
1:0
8:8:12
2:0
7:7:12
1:0
7:7:12
1:0
7:8:12
1:0
7:7:12
1:0
7:8:12
1:0
8:7:12
2:0
0:5:12
-1:-1
5:7:11
1:0
8:8:12
2:0
4:8:12
1:0
8:8:12
2:0
0:7:12
-1:0
6:7:11
1:-1
7:8:11
1:0
7:8:12
1:0
7:8:12
1:0
8:8:12
2:0
7:8:12
1:0
8:8:12
2:0
7:8:12
1:0
6:8:12
1:0
6:8:12
1:0
7:7:12
1:0
0:4:12
-1:-1
4:7:11
1:0
8:7:12
2:0
6:8:12
1:0
6:8:12
1:0
7:8:12
1:0
7:8:12
1:0
7:8:12
1:0
7:8:12
1:0
7:8:12
1:0
7:8:12
1:0
7:8:12
1:0
7:8:12
1:0
7:8:12
1:0
7:8:12
1:0
7:8:12
1:0
8:8:12
2:0
3:4:12
0:-1
7:7:12
1:0
7:9:12
1:0
7:8:12
1:0
7:8:12
1:0
7:8:12
1:0
7:8:12
1:0
7:8:12
1:0
7:8:12
1:0
7:8:12
1:0
6:8:12
1:0
6:8:12
1:0
7:7:12
1:0
8:7:12
2:0
7:8:12
1:0
8:8:12
2:0
0:6:12
-1:-1
5:8:11
1:0
4:8:12
1:0
8:8:12
2:0
0:9:12
-1:0
6:6:11
1:-1
5:7:11
1:0
7:8:12
1:0
7:8:12
1:0
7:8:12
1:0
7:8:12
1:0
7:8:12
1:0
8:8:12
2:0
8:8:12
2:0
7:9:12
1:0
7:8:12
1:0
8:5:12
2:0
0:22:12
-1:-1
0:10:11
-1:-1
2:9:10
0:-1
5:8:10
1:0
8:7:11
2:0
7:8:12
1:0
7:7:12
1:0
7:8:12
1:0
8:7:12
2:0
7:8:12
1:0
7:7:12
1:0
7:8:12
1:0
5:7:12
1:0
5:9:12
1:0
0:5:12
-1:-1
4:7:11
1:0
7:8:12
1:0
7:8:12
1:0
7:8:12
1:0
7:8:12
1:0
7:8:12
1:0
7:7:12
1:0
7:8:12
1:0
7:8:12
1:0
7:7:12
1:0
7:7:12
1:0
7:8:12
1:0
7:8:12
1:0
7:7:12
1:0
7:9:12
1:-1
6:7:12
1:0
1:5:12
-1:0
7:7:11
1:0
8:7:12
2:0
7:8:12
1:0
7:7:12
1:0
7:8:12
1:0
7:8:12
1:0
7:8:12
1:0
8:8:12
2:0
8:8:12
2:0
7:7:12
1:0
8:7:12
2:0
8:8:12
2:0
8:8:12
2:0
7:7:12
1:0
3:9:12
0:0
8:8:12
2:0
0:5:12
-1:-1
5:7:11
1:0
7:8:12
1:0
7:8:12
1:0
7:8:12
1:0
6:8:12
1:0
7:8:12
1:0
7:8:12
1:0
7:8:12
1:0
7:8:12
1:0
8:8:12
2:-1
6:8:12
1:0
8:8:12
2:0
8:8:12
2:0
2:8:12
0:-1
7:8:12
1:0
8:8:12
2:0
0:4:12
-1:-1
8:8:11
2:0
8:8:12
2:0
7:8:12
1:0
7:8:12
1:0
8:8:12
2:0
8:8:12
2:0
7:7:12
1:0
7:8:12
1:0
7:7:12
1:0
7:8:12
1:0
7:7:12
1:0
7:8:12
1:0
7:8:12
1:0
7:8:12
1:0
8:9:12
2:0
0:7:12
-1:0
0:6:11
-1:-1
5:7:10
1:0
8:8:11
2:0
7:7:12
1:0
7:7:12
1:0
8:8:12
2:0
8:8:12
2:0
8:8:12
2:0
0:7:12
-1:0
7:8:11
1:-1
7:7:11
1:0
7:7:12
1:0
7:8:12
1:0
8:7:12
2:0
7:8:12
1:0
8:8:12
2:0
7:8:12
1:0
7:8:12
1:0
3:4:12
0:-1
8:8:12
2:0
8:6:12
2:-1
7:8:12
1:0
7:8:12
1:0
8:8:12
2:0
7:8:12
1:0
8:8:12
2:0
7:8:12
1:0
7:8:12
1:0
8:8:12
2:0
8:8:12
2:0
7:7:12
1:-1
7:8:12
1:0
7:8:12
1:0
8:7:12
2:0
0:6:12
-1:-1
5:8:11
1:0
7:8:12
1:0
8:8:12
2:0
7:8:12
1:0
7:8:12
1:0
6:8:12
1:0
7:7:12
1:0
7:7:12
1:0
7:8:12
1:0
7:7:12
1:0
8:7:12
2:0
7:9:12
1:0
7:8:12
1:0
7:8:12
1:0
0:8:12
-1:0
7:7:11
1:-1
0:6:11
-1:-1
4:6:10
1:0
8:8:11
2:0
7:8:12
1:0
7:8:12
1:0
7:8:12
1:0
6:8:12
1:0
6:8:12
1:0
7:8:12
1:0
2:8:12
0:0
4:8:12
1:-1
5:7:12
1:0
0:31:12
-1:-1
2:4:11
0:0
0:4:11
-1:-1
4:7:10
1:-1
0:6:10
-1:0
4:7:9
1:0
7:7:10
1:0
7:8:11
1:0
7:7:12
1:0
7:8:12
1:0
7:7:12
1:0
7:7:12
1:0
7:7:12
1:0
1:7:12
-1:-1
3:7:11
0:0
6:8:11
1:-1
7:7:11
1:0
8:8:12
2:0
8:8:12
2:0
7:8:12
1:0
8:8:12
2:0
7:8:12
1:0
0:6:12
-1:-1
4:6:11
1:0
8:8:12
2:0
7:8:12
1:0
7:6:12
1:0
7:8:12
1:0
7:8:12
1:0
7:7:12
1:0
8:6:12
2:-1
5:9:12
1:0
6:7:12
1:0
7:7:12
1:0
8:8:12
2:0
8:8:12
2:0
7:8:12
1:0
7:7:12
1:0
7:7:12
1:0
7:8:12
1:0
3:4:12
0:-1
6:7:12
1:0
7:7:12
1:0
7:8:12
1:0
7:7:12
1:0
7:7:12
1:0
7:8:12
1:0
7:7:12
1:0
7:8:12
1:0
7:8:12
1:0
7:8:12
1:0
7:9:12
1:0
7:7:12
1:0
7:7:12
1:0
7:8:12
1:0
7:8:12
1:0
7:8:12
1:0
2:4:12
0:-1
6:8:12
1:0
7:8:12
1:0
8:8:12
2:-1
6:7:12
1:0
7:7:12
1:0
8:8:12
2:0
6:9:12
1:0
5:7:12
1:0
7:8:12
1:0
7:8:12
1:0
7:8:12
1:0
7:7:12
1:0
7:8:12
1:0
7:8:12
1:0
6:8:12
1:0
6:8:12
1:0
0:6:12
-1:-1
4:6:11
1:0
8:8:12
2:0
7:8:12
1:0
7:8:12
1:0
7:8:12
1:0
7:8:12
1:0
7:8:12
1:0
8:8:12
2:0
8:8:12
2:0
7:7:12
1:0
7:8:12
1:0
7:8:12
1:0
7:8:12
1:0
8:7:12
2:0
7:8:12
1:0
7:7:12
1:0
8:5:12
2:-1
0:7:12
-1:0
7:7:11
1:-1
7:8:11
1:-1
6:7:11
1:0
7:8:12
1:0
0:7:12
-1:0
7:9:11
1:0
7:7:12
1:0
7:8:12
1:0
7:7:12
1:0
7:8:12
1:0
8:8:12
2:0
7:7:12
1:0
7:7:12
1:0
8:8:12
2:0
8:8:12
2:0
8:7:12
2:-1
7:5:12
1:0
7:7:12
1:0
8:7:12
2:0
7:7:12
1:0
7:7:12
1:0
8:8:12
2:0
7:9:12
1:0
7:8:12
1:0
7:8:12
1:0
7:8:12
1:0
7:8:12
1:0
7:8:12
1:0
8:7:12
2:0
7:8:12
1:0
6:8:12
1:0
7:8:12
1:0
0:7:12
-1:-1
7:6:11
1:-1
7:7:11
1:0
7:8:12
1:0
7:7:12
1:0
7:9:12
1:0
7:8:12
1:0
7:8:12
1:0
7:8:12
1:0
7:7:12
1:0
7:8:12
1:0
7:7:12
1:0
7:7:12
1:0
8:8:12
2:0
7:8:12
1:0
8:8:12
2:0
7:9:12
1:0
0:5:12
-1:0
7:7:11
1:0
7:7:12
1:0
4:8:12
1:0
7:7:12
1:-1
0:30:12
-1:-1
0:1:11
-1:-1
0:3:10
-1:-1
2:3:9
0:-1
7:4:9
1:-1
0:8:9
-1:-1
0:5:8
-1:-1
2:6:7
0:0
5:7:7
1:0
7:8:8
1:0
7:8:9
1:0
7:8:10
1:0
7:7:11
1:0
7:8:12
1:0
7:7:12
1:0
7:8:12
1:0
5:8:12
1:0
5:9:12
1:0
8:8:12
2:0
8:8:12
2:0
7:8:12
1:0
8:8:12
2:0
7:8:12
1:0
7:8:12
1:0
7:5:12
1:-1
6:8:12
1:0
7:8:12
1:0
7:8:12
1:0
8:8:12
2:0
7:8:12
1:0
8:8:12
2:0
7:8:12
1:0
7:8:12
1:0
7:9:12
1:0
7:8:12
1:0
7:8:12
1:0
7:7:12
1:0
7:7:12
1:0
7:8:12
1:0
7:7:12
1:0
8:7:12
2:0
4:6:12
1:0
8:8:12
2:0
7:8:12
1:0
7:6:12
1:0
7:8:12
1:0
7:8:12
1:0
7:8:12
1:0
7:7:12
1:0
7:8:12
1:-1
7:8:12
1:0
8:7:12
2:0
7:8:12
1:0
7:7:12
1:0
7:8:12
1:0
8:7:12
2:0
7:8:12
1:0
0:7:12
-1:0
7:8:11
1:0
8:8:12
2:0
7:7:12
1:0
0:6:12
-1:-1
7:9:11
1:-1
7:7:11
1:0
7:8:12
1:0
8:8:12
2:0
6:8:12
1:-1
7:8:12
1:0
8:8:12
2:0
7:7:12
1:0
7:7:12
1:0
0:8:12
-1:0
8:8:11
2:-1
7:6:11
1:-1
7:9:11
1:0
7:6:12
1:0
7:8:12
1:0
8:8:12
2:0
8:8:12
2:0
7:8:12
1:0
7:8:12
1:0
8:8:12
2:0
0:7:12
-1:-1
7:8:11
1:0
7:8:12
1:0
7:7:12
1:0
7:7:12
1:0
7:8:12
1:0
7:7:12
1:0
7:8:12
1:0
8:7:12
2:0
7:7:12
1:0
2:5:12
0:-1
6:8:12
1:0
0:8:12
-1:0
7:7:11
1:-1
6:7:11
1:0
7:8:12
1:0
7:8:12
1:0
7:9:12
1:0
5:7:12
1:0
7:8:12
1:0
6:7:12
1:0
7:7:12
1:0
8:8:12
2:0
8:8:12
2:0
8:8:12
2:0
7:7:12
1:0
7:7:12
1:0
0:6:12
-1:-1
7:7:11
1:0
8:7:12
2:0
7:8:12
1:0
7:8:12
1:0
7:7:12
1:0
7:7:12
1:0
8:7:12
2:0
7:9:12
1:0
8:8:12
2:0
7:6:12
1:0
7:8:12
1:0
8:8:12
2:0
8:8:12
2:0
7:7:12
1:0
8:7:12
2:0
0:8:12
-1:0
8:8:11
2:-1
7:5:11
1:0
7:8:12
1:0
7:8:12
1:0
7:8:12
1:0
7:8:12
1:0
7:9:12
1:0
7:7:12
1:0
6:8:12
1:0
7:7:12
1:0
7:9:12
1:0
7:8:12
1:0
0:7:12
-1:-1
1:8:11
-1:-1
7:8:10
1:-1
8:6:10
2:0
0:7:11
-1:-1
1:9:10
-1:-1
2:5:9
0:-1
6:10:9
1:0
7:7:10
1:0
4:9:11
1:0
4:6:12
1:0
0:9:12
-1:-1
0:26:11
-1:-1
2:6:10
0:-1
6:9:10
1:0
8:7:11
2:0
7:8:12
1:0
7:7:12
1:0
8:8:12
2:0
4:5:12
1:-1
8:8:12
2:0
7:8:12
1:0
7:8:12
1:0
5:9:12
1:0
6:9:12
1:0
1:7:12
-1:0
6:8:11
1:-1
7:7:11
1:0
8:8:12
2:0
7:8:12
1:0
7:8:12
1:0
8:8:12
2:0
7:7:12
1:0
8:7:12
2:0
7:7:12
1:0
7:8:12
1:0
2:4:12
0:-1
6:8:12
1:0
7:8:12
1:0
7:9:12
1:0
7:8:12
1:0
7:8:12
1:0
7:7:12
1:0
7:7:12
1:0
7:8:12
1:0
7:8:12
1:0
7:7:12
1:0
7:8:12
1:0
7:8:12
1:0
7:7:12
1:0
7:7:12
1:0
7:8:12
1:0
8:8:12
2:0
3:4:12
0:-1
7:10:12
1:0
7:6:12
1:0
9:8:12
2:0
7:8:12
1:0
8:8:12
2:0
7:7:12
1:0
7:8:12
1:0
7:7:12
1:0
7:7:12
1:0
7:7:12
1:0
6:8:12
1:0
7:9:12
1:0
7:7:12
1:0
8:8:12
2:0
7:8:12
1:0
8:8:12
2:-1
2:4:12
0:-1
6:8:12
1:0
7:7:12
1:0
0:9:12
-1:0
7:7:11
1:0
6:8:12
1:0
6:8:12
1:0
7:7:12
1:0
7:8:12
1:0
7:8:12
1:0
7:9:12
1:0
7:6:12
1:0
6:9:12
1:0
7:7:12
1:0
6:7:12
1:0
7:7:12
1:0
7:8:12
1:0
0:6:12
-1:-1
5:7:11
1:0
7:9:12
1:0
2:7:12
0:0
6:8:12
1:0
7:7:12
1:0
6:8:12
1:0
6:8:12
1:0
7:7:12
1:0
7:8:12
1:0
7:7:12
1:0
7:8:12
1:0
8:7:12
2:0
7:8:12
1:0
7:7:12
1:0
7:9:12
1:0
6:8:12
1:0
8:7:12
2:-1
4:5:12
1:-1
8:9:12
2:0
7:8:12
1:0
0:7:12
-1:0
7:8:11
1:-1
7:8:11
1:0
8:8:12
2:0
8:8:12
2:0
7:7:12
1:0
7:7:12
1:0
8:8:12
2:0
8:8:12
2:0
7:7:12
1:0
7:7:12
1:0
8:8:12
2:0
8:8:12
2:0
0:6:12
-1:0
7:7:11
1:0
8:8:12
2:0
7:9:12
1:0
8:8:12
2:0
7:7:12
1:0
7:7:12
1:0
8:8:12
2:0
8:8:12
2:0
7:7:12
1:0
7:7:12
1:0
7:8:12
1:0
7:7:12
1:0
7:8:12
1:0
7:9:12
1:0
6:7:12
1:0
8:7:12
2:0
0:6:12
-1:0
7:8:11
1:0
7:7:12
1:-1
7:8:12
1:0
7:7:12
1:0
7:8:12
1:0
7:8:12
1:0
7:8:12
1:0
8:8:12
2:0
7:8:12
1:0
8:8:12
2:0
7:8:12
1:0
7:9:12
1:0
7:8:12
1:0
7:8:12
1:0
4:8:12
1:-1
7:7:12
1:0
0:10:12
-1:0
0:26:11
-1:-1
3:12:10
0:-1
0:8:10
-1:0
7:8:9
1:-1
7:8:9
1:0
8:7:10
2:0
7:8:11
1:0
6:10:12
1:0
7:5:12
1:0
6:7:12
1:0
7:8:12
1:0
2:8:12
0:-1
3:5:12
0:-1
7:8:12
1:0
7:8:12
1:0
7:6:12
1:0
7:8:12
1:0
7:8:12
1:0
7:9:12
1:0
7:7:12
1:0
6:8:12
1:0
6:10:12
1:0
7:6:12
1:0
6:9:12
1:0
7:7:12
1:0
6:7:12
1:0
7:7:12
1:0
7:9:12
1:0
3:7:12
0:0
6:4:12
1:0
6:6:12
1:0
7:8:12
1:0
7:8:12
1:0
7:7:12
1:0
7:7:12
1:0
7:9:12
1:0
6:7:12
1:0
7:7:12
1:0
7:8:12
1:0
8:8:12
2:0
7:6:12
1:0
7:8:12
1:0
7:8:12
1:0
8:8:12
2:0
7:7:12
1:0
7:8:12
1:0
3:6:12
0:-1
7:9:12
1:0
7:8:12
1:0
7:7:12
1:0
7:7:12
1:0
7:7:12
1:0
7:8:12
1:0
7:6:12
1:0
7:8:12
1:0
7:8:12
1:0
7:8:12
1:0
5:8:12
1:-1
6:7:12
1:0
8:8:12
2:0
8:8:12
2:0
7:7:12
1:0
4:8:12
1:0
0:5:12
-1:0
0:7:11
-1:0
7:8:10
1:-1
7:7:10
1:0
7:8:11
1:0
8:7:12
2:0
7:8:12
1:0
7:8:12
1:0
6:8:12
1:0
7:8:12
1:0
7:8:12
1:0
7:8:12
1:0
7:7:12
1:0
7:7:12
1:0
7:8:12
1:0
8:7:12
2:0
5:9:12
1:0
0:6:12
-1:0
7:9:11
1:0
6:7:12
1:0
7:7:12
1:0
7:7:12
1:0
7:8:12
1:0
8:7:12
2:0
7:8:12
1:0
7:7:12
1:0
7:8:12
1:0
7:6:12
1:0
7:8:12
1:0
6:8:12
1:0
6:8:12
1:0
7:7:12
1:0
7:8:12
1:-1
7:7:12
1:0
7:8:12
1:0
0:4:12
-1:-1
4:6:11
1:0
7:8:12
1:0
8:8:12
2:0
7:7:12
1:0
7:7:12
1:0
8:8:12
2:0
8:8:12
2:0
7:6:12
1:0
7:8:12
1:0
7:8:12
1:0
8:8:12
2:0
7:7:12
1:0
7:7:12
1:0
8:8:12
2:0
7:9:12
1:0
7:8:12
1:0
7:5:12
1:-1
6:8:12
1:0
8:8:12
2:0
8:8:12
2:0
7:6:12
1:0
7:8:12
1:0
7:8:12
1:0
7:7:12
1:0
7:8:12
1:0
6:8:12
1:0
7:7:12
1:0
7:7:12
1:0
7:8:12
1:0
7:8:12
1:0
7:8:12
1:0
7:8:12
1:0
8:8:12
2:0
0:5:12
-1:0
5:7:11
1:0
8:8:12
2:0
8:8:12
2:0
7:8:12
1:0
8:8:12
2:0
7:8:12
1:0
0:8:12
-1:0
6:8:11
1:-1
7:8:11
1:0
1:6:12
-1:-1
4:8:11
1:-1
5:8:11
1:0
1:19:12
-1:-1
0:2:11
-1:-1
0:4:10
-1:-1
0:6:9
-1:-1
3:6:8
0:-1
0:5:8
-1:0
8:8:7
2:0
7:7:8
1:0
7:7:9
1:0
8:8:10
2:0
8:8:11
2:0
7:7:12
1:0
7:7:12
1:0
8:8:12
2:0
0:6:12
-1:-1
3:9:11
0:0
6:6:11
1:-1
8:8:11
2:0
8:8:12
2:0
8:8:12
2:0
7:8:12
1:0
7:8:12
1:0
8:8:12
2:0
7:5:12
1:-1
7:8:12
1:0
7:7:12
1:0
7:8:12
1:0
8:7:12
2:0
7:8:12
1:0
7:7:12
1:0
7:8:12
1:0
7:8:12
1:0
7:8:12
1:0
7:8:12
1:0
8:8:12
2:0
7:8:12
1:0
8:8:12
2:0
7:8:12
1:0
7:7:12
1:0
8:8:12
2:0
3:4:12
0:-1
7:8:12
1:0
7:8:12
1:0
8:8:12
2:0
7:8:12
1:0
8:8:12
2:0
7:8:12
1:0
7:9:12
1:0
5:7:12
1:0
7:8:12
1:0
7:7:12
1:0
7:8:12
1:0
7:8:12
1:0
7:8:12
1:0
7:9:12
1:0
7:7:12
1:0
0:5:12
-1:0
7:7:11
1:0
8:7:12
2:0
0:8:12
-1:0
6:8:11
1:-1
7:8:11
1:0
7:8:12
1:0
8:8:12
2:0
6:8:12
1:-1
7:8:12
1:0
7:7:12
1:0
7:8:12
1:0
7:7:12
1:0
8:8:12
2:0
7:7:12
1:0
7:8:12
1:0
7:8:12
1:0
7:8:12
1:0
7:4:12
1:0
8:6:12
2:0
7:7:12
1:0
7:8:12
1:0
7:7:12
1:0
7:8:12
1:0
7:7:12
1:0
7:8:12
1:0
7:8:12
1:0
8:6:12
2:-1
7:9:12
1:0
6:7:12
1:0
7:8:12
1:0
7:8:12
1:0
7:7:12
1:0
8:8:12
2:0
7:8:12
1:0
0:4:12
-1:-1
4:7:11
1:0
7:8:12
1:0
7:7:12
1:0
7:6:12
1:0
8:8:12
2:0
7:9:12
1:0
7:8:12
1:0
0:8:12
-1:0
6:8:11
1:-1
7:8:11
1:0
7:8:12
1:0
7:7:12
1:0
7:7:12
1:0
7:8:12
1:0
7:8:12
1:0
7:8:12
1:0
0:6:12
-1:-1
4:6:11
1:0
8:8:12
2:0
7:8:12
1:0
7:8:12
1:0
7:8:12
1:0
0:7:12
-1:0
5:9:11
1:0
7:7:12
1:0
7:8:12
1:0
7:7:12
1:0
7:8:12
1:0
7:7:12
1:0
7:8:12
1:0
7:7:12
1:0
0:8:12
-1:0
7:8:11
1:-1
0:6:11
-1:-1
4:6:10
1:0
8:8:11
2:0
8:8:12
2:0
7:8:12
1:0
7:9:12
1:0
7:8:12
1:0
7:8:12
1:0
7:8:12
1:0
6:8:12
1:0
6:8:12
1:0
8:7:12
2:0
7:9:12
1:0
6:8:12
1:0
7:8:12
1:0
7:8:12
1:0
7:7:12
1:0
0:5:12
-1:0
8:6:11
2:-1
0:8:11
-1:0
6:9:10
1:-1
8:7:10
2:0
0:13:11
-1:-1
0:5:10
-1:-1
0:6:9
-1:-1
5:9:8
1:0
6:7:9
1:0
8:7:10
2:-1
7:8:10
1:0
8:7:11
2:0
8:8:12
2:0
2:5:12
0:-1
8:7:12
2:0
8:8:12
2:0
0:8:12
-1:-1
5:8:11
1:-1
7:8:11
1:0
7:7:12
1:0
6:7:12
1:0
7:8:12
1:0
7:8:12
1:0
7:7:12
1:0
8:7:12
2:0
7:8:12
1:0
6:8:12
1:0
7:7:12
1:0
7:8:12
1:0
8:8:12
2:0
7:8:12
1:0
3:4:12
0:-1
7:8:12
1:0
7:9:12
1:0
4:8:12
1:0
7:7:12
1:0
7:7:12
1:0
7:8:12
1:0
8:8:12
2:0
7:7:12
1:0
7:7:12
1:0
7:7:12
1:0
7:8:12
1:0
7:8:12
1:0
7:8:12
1:0
7:8:12
1:0
7:8:12
1:0
0:6:12
-1:-1
5:8:11
1:0
7:8:12
1:0
2:8:12
0:0
7:8:12
1:0
8:8:12
2:0
7:8:12
1:0
7:8:12
1:0
7:8:12
1:0
7:9:12
1:0
6:7:12
1:0
7:8:12
1:0
7:7:12
1:0
7:8:12
1:0
7:7:12
1:0
6:8:12
1:0
6:8:12
1:0
0:4:12
-1:-1
7:7:11
1:0
7:8:12
1:0
6:7:12
1:0
7:9:12
1:0
8:7:12
2:0
7:8:12
1:0
8:8:12
2:0
6:8:12
1:0
6:8:12
1:0
0:8:12
-1:0
7:9:11
1:-1
7:8:11
1:0
7:7:12
1:0
7:8:12
1:0
7:7:12
1:0
7:8:12
1:0
8:7:12
2:0
4:6:12
1:0
8:8:12
2:0
7:8:12
1:0
7:9:12
1:0
7:7:12
1:0
7:8:12
1:0
7:8:12
1:0
7:8:12
1:0
7:8:12
1:0
7:8:12
1:0
7:8:12
1:0
7:8:12
1:0
7:9:12
1:0
6:7:12
1:0
7:9:12
1:0
7:8:12
1:0
8:4:12
2:-1
5:7:12
1:-1
6:7:12
1:0
6:7:12
1:0
7:8:12
1:0
7:8:12
1:0
7:8:12
1:0
7:8:12
1:0
7:8:12
1:0
7:8:12
1:0
7:8:12
1:0
7:8:12
1:0
7:8:12
1:0
7:8:12
1:0
7:8:12
1:0
7:8:12
1:0
1:4:12
-1:-1
4:6:11
1:0
7:9:12
1:0
8:7:12
2:0
Finished CPU 0 instructions: 10000001 cycles: 23664522 cumulative IPC: 0.422574 (Simulation time: 0 hr 0 min 41 sec) 

CPU 0 Branch Prediction Accuracy: 99.9549% MPKI: 0.0954 Average ROB Occupancy at Mispredict: 166.154

ChampSim completed all CPUs

Region of Interest Statistics

CPU 0 cumulative IPC: 0.422574 instructions: 10000001 cycles: 23664522
L1D TOTAL     ACCESS:    4953749  HIT:    4788928  MISS:     164821
L1D LOAD      ACCESS:    1998594  HIT:    1990973  MISS:       7621
L1D RFO       ACCESS:    1124625  HIT:    1124625  MISS:          0
L1D PREFETCH  ACCESS:    1830530  HIT:    1673330  MISS:     157200
L1D WRITEBACK ACCESS:          0  HIT:          0  MISS:          0
L1D PREFETCH  REQUESTED:    2078501  ISSUED:    2059193  USEFUL:     168215  USELESS:       4795
L1D AVERAGE MISS LATENCY: 27138.7 cycles
L1I TOTAL     ACCESS:    3810565  HIT:    3810565  MISS:          0
L1I LOAD      ACCESS:    3810565  HIT:    3810565  MISS:          0
L1I RFO       ACCESS:          0  HIT:          0  MISS:          0
L1I PREFETCH  ACCESS:          0  HIT:          0  MISS:          0
L1I WRITEBACK ACCESS:          0  HIT:          0  MISS:          0
L1I PREFETCH  REQUESTED:          0  ISSUED:          0  USEFUL:          0  USELESS:          0
L1I AVERAGE MISS LATENCY: -nan cycles
L2C TOTAL     ACCESS:     519153  HIT:     431838  MISS:      87315
L2C LOAD      ACCESS:       7271  HIT:       4411  MISS:       2860
L2C RFO       ACCESS:          0  HIT:          0  MISS:          0
L2C PREFETCH  ACCESS:     511110  HIT:     426655  MISS:      84455
L2C WRITEBACK ACCESS:        772  HIT:        772  MISS:          0
L2C PREFETCH  REQUESTED:     386078  ISSUED:     383598  USEFUL:        748  USELESS:      84680
L2C AVERAGE MISS LATENCY: 128.479 cycles
LLC TOTAL     ACCESS:      87655  HIT:        747  MISS:      86908
LLC LOAD      ACCESS:       2860  HIT:         38  MISS:       2822
LLC RFO       ACCESS:          0  HIT:          0  MISS:          0
LLC PREFETCH  ACCESS:      84455  HIT:        369  MISS:      84086
LLC WRITEBACK ACCESS:        340  HIT:        340  MISS:          0
LLC PREFETCH  REQUESTED:          0  ISSUED:          0  USEFUL:         23  USELESS:      61355
LLC AVERAGE MISS LATENCY: 98.3005 cycles
Major fault: 0 Minor fault: 2388
CPU 0 L2C next line prefetcher final stats

DRAM Statistics
 CHANNEL 0
 RQ ROW_BUFFER_HIT:      79962  ROW_BUFFER_MISS:       6946
 DBUS_CONGESTED:      65201
 WQ ROW_BUFFER_HIT:          3  ROW_BUFFER_MISS:        194  FULL:          0

 AVG_CONGESTED_CYCLE: 6
