
*** ChampSim Multicore Out-of-Order Simulator ***

Warmup Instructions: 1000000
Simulation Instructions: 10000000
Number of CPUs: 1
LLC sets: 2048
LLC ways: 16
Off-chip DRAM Size: 4096 MB Channels: 1 Width: 64-bit Data Rate: 3200 MT/s

CPU 0 runs /home/light/7th-Sem/cs622/project/ChampSim/dpc3_traces/605.mcf_s-665B.champsimtrace.xz
0:8:4
-1:-1
0:1:3
-1:-1
0:0:2
-1:-1
6:0:1
1:-1
0:4:1
-1:-1
0:4:1
-1:-1
0:2:1
-1:-1
0:0:1
-1:-1
1:16:1
-1:-1
0:5:1
-1:-1
2:2:1
0:-1
0:1:1
-1:-1
0:0:1
-1:-1
0:1:1
-1:-1
0:0:1
-1:-1
2:5:1
0:-1
0:11:1
-1:-1
0:12:1
-1:-1
0:9:1
-1:-1
0:11:1
-1:-1
2:13:1
0:-1
2:9:1
0:-1
0:9:1
-1:-1
0:1:1
-1:-1
0:1:1
-1:-1
0:2:1
-1:-1
0:2:1
-1:-1
0:2:1
-1:-1
0:8:1
-1:-1
0:5:1
-1:1
0:0:1
-1:-1
0:0:1
-1:-1
1:2:1
-1:-1
0:0:1
-1:-1
0:1:1
-1:-1
1:4:1
-1:-1
0:2:1
-1:-1
0:2:1
-1:-1
0:8:1
-1:-1
0:8:1
-1:1
0:5:1
-1:-1
0:4:1
-1:-1
0:1:1
-1:1
1:27:1
-1:-1
0:27:1
-1:1
0:3:1
-1:1
0:1:1
-1:-1
3:13:1
0:-1
2:58:1
0:1
0:82:2
-1:-1
0:21:1
-1:1
0:3:1
-1:1
0:3:1
-1:-1
0:3:1
-1:-1
0:10:1
-1:-1
2:27:1
0:1
0:27:2
-1:0
0:30:1
-1:1
0:33:1
-1:-1
0:22:1
-1:-1
1:23:1
-1:-1
0:34:1
-1:-1
0:44:1
-1:-1
5:31:1
1:-1
0:51:1
-1:-1
0:33:1
-1:-1
0:32:1
-1:1
1:32:1
-1:1
1:27:1
-1:-1
0:11:1
-1:-1
0:27:1
-1:-1
0:63:1
-1:1
0:5:1
-1:-1
0:7:1
-1:-1
0:2:1
-1:1
0:4:1
-1:1
0:3:1
-1:-1
0:4:1
-1:-1
1:2:1
-1:-1
0:5:1
-1:1
0:7:1
-1:-1
0:2:1
-1:-1
0:1:1
-1:-1
1:2:1
-1:-1
1:9:1
-1:-1
0:3:1
-1:-1
0:5:1
-1:-1
0:5:1
-1:-1
0:4:1
-1:-1
0:12:1
-1:1
0:1:1
-1:-1
1:1:1
-1:-1
0:17:1
-1:-1
0:4:1
-1:-1
0:4:1
-1:-1
0:27:1
-1:-1
0:3:1
-1:-1
0:1:1
-1:-1
0:0:1
-1:-1
0:6:1
-1:-1
0:4:1
-1:-1
0:4:1
-1:-1
0:0:1
-1:-1
0:3:1
-1:-1
0:2:1
-1:-1
0:3:1
-1:-1
0:1:1
-1:-1
0:4:1
-1:-1
1:16:1
-1:-1
2:69:1
0:1
0:60:2
-1:-1
1:80:1
-1:1
0:78:1
-1:-1
0:55:1
-1:1
2:75:1
0:1
0:69:2
-1:0
1:80:1
-1:1
0:73:1
-1:-1
0:46:1
-1:-1
0:21:1
-1:-1
1:25:1
-1:-1
1:17:1
-1:-1
1:21:1
-1:-1
0:22:1
-1:-1
0:2:1
-1:-1
0:2:1
-1:-1
0:7:1
-1:-1
0:3:1
-1:-1
0:18:1
-1:-1
0:3:1
-1:-1
0:3:1
-1:-1
0:12:1
-1:-1
0:4:1
-1:-1
2:4:1
0:-1
0:3:1
-1:-1
0:15:1
-1:-1
0:14:1
-1:-1
1:4:1
-1:1
1:34:1
-1:-1
0:37:1
-1:1
0:51:1
-1:1
1:64:1
-1:1
0:46:1
-1:-1
0:52:1
-1:-1
0:69:1
-1:1
0:46:1
-1:-1
1:12:1
-1:-1
1:6:1
-1:-1
1:1:1
-1:-1
0:7:1
-1:-1
0:3:1
-1:-1
2:10:1
0:1
0:3:2
-1:0
0:13:1
-1:-1
0:8:1
-1:-1
2:3:1
0:-1
0:4:1
-1:1
0:12:1
-1:1
0:2:1
-1:-1
0:14:1
-1:-1
0:2:1
-1:-1
0:1:1
-1:-1
0:5:1
-1:-1
0:31:1
-1:-1
0:24:1
-1:1
0:39:1
-1:1
0:36:1
-1:1
0:38:1
-1:-1
0:5:1
-1:-1
1:14:1
-1:-1
0:2:1
-1:-1
0:7:1
-1:-1
0:5:1
-1:-1
0:8:1
-1:-1
5:5:1
1:-1
0:5:1
-1:-1
1:7:1
-1:-1
0:2:1
-1:-1
0:11:1
-1:-1
0:3:1
-1:1
0:9:1
-1:-1
0:0:1
-1:-1
0:6:1
-1:-1
0:14:1
-1:1
0:6:1
-1:-1
0:5:1
-1:-1
1:6:1
-1:-1
0:7:1
-1:-1
0:6:1
-1:-1
1:0:1
-1:-1
0:2:1
-1:-1
0:11:1
-1:-1
0:10:1
-1:-1
1:4:1
-1:-1
0:92:1
-1:1
0:8:1
-1:-1
0:4:1
-1:-1
1:7:1
-1:-1
3:79:1
0:1
0:107:2
-1:1
2:26:2
0:-1
1:25:2
-1:1
3:45:2
0:-1
0:47:2
-1:-1
4:39:1
1:-1
0:34:1
-1:1
1:43:1
-1:-1
3:50:1
0:1
1:48:2
-1:-1
1:65:1
-1:-1
2:57:1
0:-1
2:56:1
0:-1
2:44:1
0:-1
0:48:1
-1:1
3:53:1
0:-1
3:53:1
0:-1
2:64:1
0:1
1:52:2
-1:1
1:49:2
-1:-1
4:51:1
1:-1
4:53:1
1:1
2:42:2
0:0
3:57:2
0:0
2:46:2
0:1
2:56:3
0:0
3:56:3
0:1
0:59:4
-1:0
1:58:3
-1:0
0:47:2
-1:0
2:42:1
0:-1
1:47:1
-1:1
2:53:1
0:-1
0:34:1
-1:1
0:32:1
-1:-1
3:45:1
0:-1
3:37:1
0:1
6:27:2
1:1
4:45:3
1:-1
0:47:3
-1:0
1:45:2
-1:1
5:52:2
1:-1
4:62:2
1:0
3:62:3
0:-1
7:53:3
1:1
4:58:4
1:1
0:52:5
-1:1
2:52:5
0:-1
0:48:5
-1:-1
2:41:4
0:-1
2:70:4
0:1
3:49:5
0:1
2:55:6
0:0
1:42:6
-1:1
3:49:6
0:1
2:42:7
0:1
0:42:8
-1:1
1:60:8
-1:-1
0:45:7
-1:-1
0:39:6
-1:-1
0:59:5
-1:0
3:41:4
0:-1
3:53:4
0:0
1:50:4
-1:-1
0:49:3
-1:-1
3:70:2
0:-1
0:45:2
-1:1
2:46:2
0:-1
0:40:2
-1:0
0:44:1
-1:-1
1:47:1
-1:-1
0:48:1
-1:1
3:46:1
0:-1
3:52:1
0:1
0:51:2
-1:0
3:47:1
0:1
2:48:2
0:1
0:54:3
-1:0
0:26:2
-1:-1
0:58:1
-1:-1
2:25:1
0:-1
0:33:1
-1:-1
0:42:1
-1:1
0:20:1
-1:-1
0:32:1
-1:-1
0:51:1
-1:-1
0:43:1
-1:1
0:48:1
-1:-1
2:41:1
0:1
0:39:2
-1:-1
0:44:1
-1:1
0:47:1
-1:-1
0:42:1
-1:-1
2:54:1
0:-1
3:41:1
0:-1
0:51:1
-1:1
0:63:1
-1:-1
0:47:1
-1:1
0:47:1
-1:-1
0:47:1
-1:1
3:45:1
0:1
0:38:2
-1:-1
2:48:1
0:1
0:45:2
-1:-1
0:51:1
-1:1
0:57:1
-1:1
1:47:1
-1:-1
0:59:1
-1:-1
0:40:1
-1:1
0:87:1
-1:1
0:17:1
-1:-1
0:30:1
-1:1
0:42:1
-1:1
2:65:1
0:1
2:67:2
0:-1
2:60:2
0:-1
0:83:2
-1:-1
0:87:1
-1:1
0:58:1
-1:-1
2:73:1
0:1
1:60:2
-1:0
2:65:1
0:1
0:93:2
-1:-1
0:19:1
-1:-1
3:28:1
0:1
0:40:2
-1:-1
2:26:1
0:1
1:16:2
-1:-1
0:10:1
-1:-1
0:2:1
-1:-1
1:3:1
-1:-1
0:16:1
-1:1
2:1:1
0:-1
0:0:1
-1:-1
0:4:1
-1:-1
0:2:1
-1:-1
0:6:1
-1:-1
0:6:1
-1:-1
0:2:1
-1:-1
0:7:1
-1:1
0:1:1
-1:-1
0:6:1
-1:-1
0:8:1
-1:-1
0:2:1
-1:-1
1:5:1
-1:-1
0:9:1
-1:-1
0:7:1
-1:-1
0:0:1
-1:-1
0:1:1
-1:-1
1:9:1
-1:1
1:16:1
-1:-1
1:46:1
-1:1
0:54:1
-1:-1
0:6:1
-1:1
0:13:1
-1:1
0:15:1
-1:-1
0:6:1
-1:-1
0:1:1
-1:1
1:11:1
-1:1
0:17:1
-1:-1
0:4:1
-1:-1
0:9:1
-1:-1
0:2:1
-1:-1
0:11:1
-1:-1
0:1:1
-1:-1
0:1:1
-1:-1
0:17:1
-1:-1
0:10:1
-1:1
0:59:1
-1:-1
0:63:1
-1:1
0:72:1
-1:-1
0:60:1
-1:-1
0:57:1
-1:1
5:71:1
1:1
0:62:2
-1:-1
0:71:1
-1:1
0:59:1
-1:1
1:62:1
-1:-1
0:56:1
-1:-1
2:68:1
0:1
0:50:2
-1:1
0:53:2
-1:-1
0:83:1
-1:-1
2:62:1
0:-1
0:51:1
-1:-1
1:42:1
-1:1
0:9:1
-1:-1
0:5:1
-1:-1
0:9:1
-1:-1
0:13:1
-1:-1
0:10:1
-1:1
0:7:1
-1:-1
0:2:1
-1:-1
0:15:1
-1:-1
1:15:1
-1:-1
0:1:1
-1:-1
0:5:1
-1:-1
0:6:1
-1:-1
0:3:1
-1:-1
0:5:1
-1:1
0:1:1
-1:-1
1:13:1
-1:-1
0:12:1
-1:-1
0:12:1
-1:-1
0:10:1
-1:-1
0:9:1
-1:-1
0:10:1
-1:1
0:28:1
-1:-1
0:18:1
-1:-1
1:32:1
-1:-1
0:38:1
-1:-1
0:38:1
-1:1
0:8:1
-1:-1
0:9:1
-1:-1
0:4:1
-1:-1
1:4:1
-1:-1
0:7:1
-1:-1
0:11:1
-1:-1
0:16:1
-1:-1
0:6:1
-1:-1
0:4:1
-1:-1
0:3:1
-1:1
0:8:1
-1:-1
0:12:1
-1:-1
0:10:1
-1:-1
0:1:1
-1:-1
0:1:1
-1:-1
0:22:1
-1:-1
0:30:1
-1:-1
0:20:1
-1:-1
0:2:1
-1:-1
0:9:1
-1:-1
0:6:1
-1:1
1:1:1
-1:-1
0:3:1
-1:-1
0:2:1
-1:1
0:117:1
-1:-1
0:60:1
-1:1
0:3:1
-1:-1
0:35:1
-1:1
1:44:1
-1:1
0:73:1
-1:-1
0:62:1
-1:1
1:56:1
-1:1
0:6:1
-1:-1
0:4:1
-1:-1
0:5:1
-1:1
0:15:1
-1:-1
0:21:1
-1:-1
0:10:1
-1:1
0:4:1
-1:-1
0:3:1
-1:-1
0:6:1
-1:-1
0:7:1
-1:-1
0:2:1
-1:-1
0:4:1
-1:-1
0:4:1
-1:1
0:7:1
-1:-1
2:11:1
0:1
0:23:2
-1:-1
0:15:1
-1:-1
0:10:1
-1:-1
0:8:1
-1:-1
0:6:1
-1:-1
0:21:1
-1:1
0:4:1
-1:1
0:2:1
-1:-1
0:2:1
-1:-1
0:60:1
-1:-1
0:63:1
-1:1
0:78:1
-1:-1
0:78:1
-1:-1
0:70:1
-1:-1
0:63:1
-1:-1
0:83:1
-1:1
2:59:1
0:1
0:72:2
-1:-1
0:64:1
-1:-1
1:77:1
-1:1
0:54:1
-1:-1
2:16:1
0:-1
0:23:1
-1:-1
1:14:1
-1:-1
0:21:1
-1:-1
2:37:1
0:-1
0:38:1
-1:-1
0:12:1
-1:-1
0:8:1
-1:-1
1:12:1
-1:-1
0:20:1
-1:1
0:3:1
-1:1
0:6:1
-1:-1
0:12:1
-1:-1
2:11:1
0:-1
0:2:1
-1:-1
0:21:1
-1:-1
0:9:1
-1:-1
0:21:1
-1:-1
0:31:1
-1:1
0:44:1
-1:1
0:50:1
-1:1
0:46:1
-1:1
2:74:1
0:-1
0:40:1
-1:1
0:5:1
-1:1
4:12:1
1:-1
0:20:1
-1:-1
0:9:1
-1:-1
0:10:1
-1:-1
1:7:1
-1:-1
0:3:1
-1:1
0:4:1
-1:-1
0:14:1
-1:-1
0:4:1
-1:-1
0:35:1
-1:1
0:45:1
-1:1
2:33:1
0:1
0:38:2
-1:0
1:15:1
-1:-1
0:4:1
-1:1
0:4:1
-1:-1
0:3:1
-1:-1
0:9:1
-1:-1
0:14:1
-1:-1
0:4:1
-1:-1
0:11:1
-1:-1
0:6:1
-1:-1
1:12:1
-1:1
0:16:1
-1:-1
1:7:1
-1:1
0:12:1
-1:-1
0:7:1
-1:-1
0:15:1
-1:-1
0:4:1
-1:-1
1:54:1
-1:-1
0:71:1
-1:-1
2:65:1
0:1
2:73:2
0:-1
1:75:2
-1:-1
0:51:1
-1:-1
0:3:1
-1:-1
0:8:1
-1:1
1:7:1
-1:1
0:6:1
-1:-1
0:7:1
-1:-1
0:17:1
-1:-1
0:9:1
-1:1
0:10:1
-1:-1
0:7:1
-1:-1
0:5:1
-1:-1
0:11:1
-1:1
2:4:1
0:-1
0:8:1
-1:-1
0:4:1
-1:-1
0:17:1
-1:-1
0:7:1
-1:-1
0:10:1
-1:-1
0:2:1
-1:-1
0:7:1
-1:1
0:15:1
-1:-1
0:18:1
-1:-1
0:11:1
-1:1
1:40:1
-1:-1
0:23:1
-1:-1
0:34:1
-1:1
0:20:1
-1:1
0:25:1
-1:1
0:19:1
-1:-1
0:11:1
-1:-1
0:4:1
-1:-1
0:5:1
-1:1
0:0:1
-1:-1
0:11:1
-1:-1
0:7:1
-1:-1
0:14:1
-1:-1
3:20:1
0:-1
0:13:1
-1:-1
0:5:1
-1:-1
0:83:1
-1:-1
0:66:1
-1:1
2:38:1
0:-1
0:39:1
-1:-1
0:124:1
-1:-1
5:161:1
1:-1
3:35:1
0:-1
4:46:1
1:1
4:49:2
1:0
3:44:3
0:0
7:52:3
1:1
4:36:4
1:0
0:41:5
-1:0
3:58:4
0:-1
2:50:4
0:0
3:55:4
0:1
3:63:5
0:1
4:51:6
1:1
5:49:7
1:1
3:63:8
0:0
2:56:8
0:1
1:62:9
-1:1
0:56:9
-1:1
0:58:9
-1:-1
3:54:8
0:-1
0:49:8
-1:0
5:52:7
1:-1
0:62:7
-1:0
2:59:6
0:-1
0:59:6
-1:0
2:58:5
0:-1
3:56:5
0:1
0:75:6
-1:-1
2:49:5
0:-1
0:58:5
-1:1
2:39:5
0:-1
2:44:5
0:1
3:47:6
0:1
2:36:7
0:1
4:41:8
1:1
4:44:9
1:1
3:53:10
0:1
2:68:11
0:1
1:50:12
-1:1
3:42:12
0:-1
0:51:12
-1:1
4:52:12
1:0
4:49:12
1:1
4:53:12
1:0
3:55:12
0:-1
3:51:12
0:1
2:61:12
0:1
3:47:12
0:1
0:63:12
-1:1
2:42:12
0:-1
2:50:12
0:-1
2:52:12
0:1
2:49:12
0:0
2:55:12
0:1
0:51:12
-1:-1
0:42:11
-1:-1
3:50:10
0:0
3:44:10
0:0
2:49:10
0:0
2:49:10
0:1
0:43:11
-1:0
2:47:10
0:-1
3:55:10
0:1
3:63:11
0:-1
2:59:11
0:1
0:57:12
-1:1
3:37:12
0:-1
3:53:12
0:1
2:44:12
0:1
1:62:12
-1:-1
0:43:11
-1:-1
0:39:10
-1:-1
2:40:9
0:-1
2:56:9
0:1
2:40:10
0:0
3:51:10
0:1
0:57:11
-1:1
2:43:11
0:0
0:50:11
-1:1
3:41:11
0:-1
0:29:11
-1:0
1:37:10
-1:-1
0:25:9
-1:-1
0:74:8
-1:-1
3:42:7
0:-1
0:52:7
-1:-1
0:37:6
-1:-1
0:36:5
-1:-1
1:53:4
-1:0
0:36:3
-1:0
0:35:2
-1:0
0:37:1
-1:-1
0:52:1
-1:1
0:52:1
-1:1
0:48:1
-1:-1
0:26:1
-1:-1
0:34:1
-1:-1
0:42:1
-1:-1
0:43:1
-1:-1
0:65:1
-1:1
0:44:1
-1:-1
0:44:1
-1:-1
0:44:1
-1:-1
2:37:1
0:-1
1:66:1
-1:-1
1:48:1
-1:-1
0:39:1
-1:1
0:99:1
-1:-1
0:28:1
-1:1
0:43:1
-1:-1
0:52:1
-1:-1
1:59:1
-1:-1
0:59:1
-1:1
0:57:1
-1:-1
0:51:1
-1:1
2:47:1
0:1
0:50:2
-1:-1
0:16:1
-1:1
0:8:1
-1:-1
0:15:1
-1:-1
0:18:1
-1:-1
0:13:1
-1:-1
0:8:1
-1:-1
1:2:1
-1:-1
1:12:1
-1:-1
0:6:1
-1:-1
0:1:1
-1:-1
0:3:1
-1:-1
0:3:1
-1:-1
0:1:1
-1:-1
0:3:1
-1:-1
0:2:1
-1:-1
0:2:1
-1:-1
0:13:1
-1:1
0:3:1
-1:-1
0:5:1
-1:1
0:7:1
-1:1
0:5:1
-1:-1
0:27:1
-1:-1
0:20:1
-1:-1
0:35:1
-1:-1
2:15:1
0:-1
0:8:1
-1:-1
0:7:1
-1:-1
0:13:1
-1:1
0:8:1
-1:-1
0:0:1
-1:-1
0:8:1
-1:-1
0:5:1
-1:-1
0:10:1
-1:1
0:13:1
-1:-1
0:2:1
-1:-1
0:5:1
-1:-1
0:10:1
-1:-1
1:11:1
-1:-1
0:4:1
-1:-1
0:7:1
-1:-1
0:10:1
-1:-1
0:7:1
-1:1
0:4:1
-1:-1
0:11:1
-1:-1
0:83:1
-1:-1
2:87:1
0:1
0:78:2
-1:0
0:37:1
-1:1
0:2:1
-1:1
0:5:1
-1:1
0:6:1
-1:-1
0:6:1
-1:1
0:13:1
-1:-1
0:2:1
-1:-1
0:3:1
-1:-1
0:6:1
-1:-1
0:2:1
-1:-1
0:8:1
-1:1
0:0:1
-1:-1
0:9:1
-1:-1
0:9:1
-1:1
0:7:1
-1:-1
0:4:1
-1:1
0:4:1
-1:-1
0:8:1
-1:-1
0:5:1
-1:-1
0:7:1
-1:-1
0:7:1
-1:-1
0:12:1
-1:1
0:6:1
-1:1
0:27:1
-1:1
0:10:1
-1:-1
0:18:1
-1:-1
0:14:1
-1:1
0:9:1
-1:-1
0:2:1
-1:-1
5:28:1
1:-1
0:59:1
-1:1
2:80:1
0:-1
1:67:1
-1:-1
1:88:1
-1:-1
0:71:1
-1:-1
0:61:1
-1:-1
1:58:1
-1:-1
0:47:1
-1:1
2:72:1
0:1
0:68:2
-1:-1
0:68:1
-1:-1
1:51:1
-1:1
1:64:1
-1:-1
0:60:1
-1:-1
0:60:1
-1:1
0:63:1
-1:-1
0:65:1
-1:1
0:75:1
-1:1
0:47:1
-1:-1

Warmup complete CPU 0 instructions: 1000004 cycles: 996780 (Simulation time: 0 hr 0 min 2 sec) 

0:37:1
-1:-1
0:24:1
-1:1
0:23:1
-1:1
0:12:1
-1:1
0:29:1
-1:1
0:11:1
-1:-1
0:24:1
-1:1
0:16:1
-1:-1
0:18:1
-1:-1
1:10:1
-1:-1
0:15:1
-1:1
0:26:1
-1:1
0:20:1
-1:-1
0:19:1
-1:-1
0:10:1
-1:1
0:5:1
-1:-1
2:6:1
0:-1
0:4:1
-1:-1
0:2:1
-1:-1
4:4:1
1:-1
0:4:1
-1:-1
1:8:1
-1:-1
0:6:1
-1:-1
4:1:1
1:-1
0:3:1
-1:1
0:9:1
-1:-1
0:5:1
-1:-1
0:1:1
-1:-1
2:3:1
0:-1
1:3:1
-1:-1
0:5:1
-1:-1
2:8:1
0:-1
0:3:1
-1:-1
3:7:1
0:-1
0:11:1
-1:-1
0:9:1
-1:1
2:6:1
0:-1
0:11:1
-1:1
1:2:1
-1:-1
0:5:1
-1:-1
0:5:1
-1:-1
0:11:1
-1:-1
0:2:1
-1:-1
1:8:1
-1:-1
0:19:1
-1:-1
0:7:1
-1:-1
1:4:1
-1:-1
1:1:1
-1:-1
2:3:1
0:-1
0:2:1
-1:-1
0:1:1
-1:-1
0:1:1
-1:-1
0:2:1
-1:-1
0:1:1
-1:-1
3:1:1
0:-1
0:1:1
-1:-1
0:7:1
-1:-1
1:7:1
-1:-1
0:7:1
-1:-1
0:5:1
-1:-1
0:14:1
-1:1
0:12:1
-1:-1
1:14:1
-1:-1
1:8:1
-1:-1
4:9:1
1:-1
0:10:1
-1:-1
0:10:1
-1:1
1:9:1
-1:1
0:12:1
-1:-1
0:10:1
-1:-1
0:7:1
-1:1
1:4:1
-1:1
0:3:1
-1:-1
0:1:1
-1:-1
0:3:1
-1:-1
0:4:1
-1:1
0:10:1
-1:-1
0:1:1
-1:-1
0:12:1
-1:-1
0:6:1
-1:-1
0:2:1
-1:-1
0:6:1
-1:-1
0:6:1
-1:-1
0:1:1
-1:-1
1:1:1
-1:-1
0:1:1
-1:-1
0:7:1
-1:1
0:2:1
-1:1
0:2:1
-1:-1
0:10:1
-1:-1
0:6:1
-1:-1
1:2:1
-1:-1
0:2:1
-1:1
0:4:1
-1:-1
2:3:1
0:-1
0:4:1
-1:-1
0:4:1
-1:-1
0:3:1
-1:-1
0:3:1
-1:-1
0:5:1
-1:-1
0:7:1
-1:1
0:8:1
-1:-1
0:6:1
-1:-1
0:4:1
-1:-1
2:8:1
0:-1
0:4:1
-1:-1
0:2:1
-1:1
5:28:1
1:1
0:21:2
-1:1
0:19:2
-1:-1
0:22:1
-1:1
0:19:1
-1:1
2:24:1
0:1
2:26:2
0:0
0:16:2
-1:0
0:6:1
-1:1
0:1:1
-1:-1
0:8:1
-1:-1
0:1:1
-1:-1
0:6:1
-1:-1
0:17:1
-1:-1
0:2:1
-1:-1
0:15:1
-1:-1
0:13:1
-1:-1
0:12:1
-1:-1
0:7:1
-1:-1
0:4:1
-1:-1
0:1:1
-1:-1
0:4:1
-1:-1
0:1:1
-1:-1
0:6:1
-1:1
0:2:1
-1:-1
0:3:1
-1:1
0:5:1
-1:-1
0:20:1
-1:-1
0:1:1
-1:-1
0:3:1
-1:-1
0:1:1
-1:-1
6:31:1
1:-1
0:21:1
-1:1
1:28:1
-1:1
0:46:1
-1:1
1:29:1
-1:-1
0:37:1
-1:-1
1:34:1
-1:1
0:36:1
-1:-1
4:30:1
1:1
0:24:2
-1:0
0:41:1
-1:-1
2:27:1
0:-1
0:29:1
-1:-1
0:26:1
-1:1
0:51:1
-1:1
0:43:1
-1:1
0:47:1
-1:-1
0:25:1
-1:1
0:17:1
-1:1
0:28:1
-1:1
0:25:1
-1:-1
1:36:1
-1:-1
0:32:1
-1:-1
0:39:1
-1:-1
0:22:1
-1:1
0:12:1
-1:-1
1:10:1
-1:1
0:2:1
-1:-1
0:6:1
-1:1
0:5:1
-1:-1
1:8:1
-1:-1
2:4:1
0:-1
2:5:1
0:-1
0:0:1
-1:-1
2:3:1
0:1
0:2:2
-1:-1
5:11:1
1:-1
0:4:1
-1:1
4:5:1
1:1
0:12:2
-1:1
0:2:2
-1:-1
0:1:1
-1:-1
0:3:1
-1:1
0:7:1
-1:-1
0:3:1
-1:-1
2:8:1
0:-1
0:6:1
-1:-1
1:4:1
-1:-1
0:7:1
-1:1
0:1:1
-1:-1
0:2:1
-1:1
2:4:1
0:-1
0:8:1
-1:1
0:4:1
-1:-1
0:21:1
-1:1
0:22:1
-1:-1
1:21:1
-1:1
0:31:1
-1:-1
0:10:1
-1:1
0:27:1
-1:1
0:23:1
-1:1
2:22:1
0:1
0:21:2
-1:-1
2:14:1
0:-1
0:17:1
-1:1
0:23:1
-1:1
0:42:1
-1:-1
0:28:1
-1:-1
0:26:1
-1:1
0:32:1
-1:1
0:27:1
-1:1
0:21:1
-1:-1
0:32:1
-1:1
0:37:1
-1:1
0:22:1
-1:1
0:30:1
-1:-1
0:20:1
-1:1
2:17:1
0:1
0:15:2
-1:-1
0:15:1
-1:-1
0:23:1
-1:1
2:12:1
0:-1
0:15:1
-1:1
0:17:1
-1:-1
0:8:1
-1:-1
0:20:1
-1:1
0:17:1
-1:1
0:7:1
-1:1
0:8:1
-1:1
0:3:1
-1:-1
0:12:1
-1:-1
0:1:1
-1:-1
0:1:1
-1:-1
0:1:1
-1:-1
0:1:1
-1:-1
0:5:1
-1:1
0:1:1
-1:-1
1:2:1
-1:-1
0:3:1
-1:-1
0:3:1
-1:1
0:2:1
-1:1
2:16:1
0:1
3:16:2
0:0
0:13:2
-1:-1
2:21:1
0:1
1:21:2
-1:-1
2:17:1
0:-1
0:23:1
-1:-1
0:24:1
-1:1
0:21:1
-1:1
0:13:1
-1:-1
0:19:1
-1:-1
0:23:1
-1:-1
2:24:1
0:-1
0:27:1
-1:1
1:20:1
-1:1
2:25:1
0:-1
0:23:1
-1:-1
0:24:1
-1:-1
2:26:1
0:1
2:15:2
0:0
2:1:2
0:-1
0:5:2
-1:-1
0:2:1
-1:1
2:1:1
0:-1
1:6:1
-1:-1
0:2:1
-1:-1
0:2:1
-1:1
0:2:1
-1:-1
0:4:1
-1:-1
0:6:1
-1:1
2:4:1
0:-1
4:7:1
1:1
0:3:2
-1:-1
0:1:1
-1:-1
0:4:1
-1:-1
3:10:1
0:-1
0:9:1
-1:-1
1:1:1
-1:-1
0:8:1
-1:-1
0:9:1
-1:1
0:3:1
-1:-1
0:1:1
-1:-1
0:7:1
-1:-1
0:3:1
-1:1
0:4:1
-1:-1
0:5:1
-1:-1
0:2:1
-1:1
0:1:1
-1:-1
0:7:1
-1:1
2:4:1
0:-1
0:4:1
-1:1
0:3:1
-1:-1
0:1:1
-1:-1
0:5:1
-1:1
0:1:1
-1:-1
0:7:1
-1:-1
1:2:1
-1:-1
0:5:1
-1:-1
0:8:1
-1:-1
0:4:1
-1:-1
0:4:1
-1:-1
1:3:1
-1:-1
2:1:1
0:-1
0:1:1
-1:-1
0:1:1
-1:-1
0:3:1
-1:-1
0:1:1
-1:-1
2:4:1
0:-1
0:5:1
-1:1
2:8:1
0:1
0:3:2
-1:0
0:1:1
-1:-1
0:4:1
-1:-1
0:2:1
-1:-1
0:1:1
-1:-1
0:2:1
-1:-1
0:6:1
-1:1
1:1:1
-1:-1
0:2:1
-1:1
0:5:1
-1:1
0:10:1
-1:-1
1:3:1
-1:-1
0:0:1
-1:-1
0:3:1
-1:-1
1:7:1
-1:1
0:3:1
-1:-1
0:6:1
-1:-1
0:6:1
-1:-1
0:3:1
-1:-1
0:9:1
-1:-1
4:7:1
1:-1
0:7:1
-1:-1
0:0:1
-1:-1
0:16:1
-1:-1
0:16:1
-1:1
0:23:1
-1:1
0:19:1
-1:1
0:20:1
-1:1
0:21:1
-1:1
0:25:1
-1:1
0:26:1
-1:-1
0:28:1
-1:1
0:3:1
-1:1
0:2:1
-1:1
0:6:1
-1:1
0:1:1
-1:-1
0:4:1
-1:1
0:8:1
-1:-1
0:4:1
-1:1
1:12:1
-1:1
1:11:1
-1:1
1:1:1
-1:-1
0:7:1
-1:1
1:7:1
-1:-1
0:14:1
-1:-1
0:9:1
-1:1
2:12:1
0:-1
0:0:1
-1:-1
0:5:1
-1:-1
0:6:1
-1:1
2:5:1
0:-1
0:4:1
-1:1
3:14:1
0:1
0:6:2
-1:-1
0:5:1
-1:-1
0:6:1
-1:-1
0:3:1
-1:-1
0:3:1
-1:-1
0:2:1
-1:-1
0:2:1
-1:-1
0:9:1
-1:-1
0:6:1
-1:-1
0:28:1
-1:-1
2:62:1
0:1
2:31:2
0:0
2:7:2
0:-1
0:0:2
-1:-1
0:0:1
-1:-1
0:5:1
-1:-1
0:0:1
-1:-1
0:2:1
-1:-1
0:0:1
-1:-1
0:1:1
-1:-1
0:1:1
-1:-1
0:2:1
-1:-1
0:3:1
-1:-1
0:5:1
-1:1
0:6:1
-1:-1
1:2:1
-1:-1
2:1:1
0:-1
0:1:1
-1:-1
0:12:1
-1:-1
2:2:1
0:-1
0:26:1
-1:-1
0:27:1
-1:-1
0:52:1
-1:-1
2:79:1
0:-1
1:79:1
-1:-1
2:17:1
0:-1
1:2:1
-1:1
0:1:1
-1:-1
0:1:1
-1:-1
0:3:1
-1:-1
0:1:1
-1:-1
0:1:1
-1:-1
0:4:1
-1:-1
0:3:1
-1:-1
0:1:1
-1:-1
0:6:1
-1:-1
0:0:1
-1:-1
0:3:1
-1:-1
0:9:1
-1:-1
0:12:1
-1:-1
0:3:1
-1:-1
5:2:1
1:-1
0:2:1
-1:-1
0:7:1
-1:-1
0:6:1
-1:-1
0:9:1
-1:-1
0:9:1
-1:-1
0:5:1
-1:-1
0:2:1
-1:-1
0:4:1
-1:-1
1:2:1
-1:-1
1:3:1
-1:-1
0:2:1
-1:-1
1:4:1
-1:-1
0:4:1
-1:-1
0:4:1
-1:-1
0:1:1
-1:-1
0:1:1
-1:-1
0:2:1
-1:-1
1:1:1
-1:-1
0:3:1
-1:-1
4:2:1
1:-1
0:1:1
-1:-1
2:3:1
0:-1
0:1:1
-1:-1
0:1:1
-1:-1
1:3:1
-1:-1
1:2:1
-1:-1
0:3:1
-1:-1
0:4:1
-1:-1
0:3:1
-1:-1
0:3:1
-1:-1
1:2:1
-1:-1
0:6:1
-1:-1
2:5:1
0:-1
3:2:1
0:1
0:3:2
-1:1
2:3:2
0:-1
3:3:2
0:-1
0:5:2
-1:-1
1:3:1
-1:-1
0:5:1
-1:-1
0:3:1
-1:-1
2:5:1
0:-1
0:3:1
-1:-1
0:3:1
-1:-1
1:4:1
-1:-1
0:4:1
-1:1
0:5:1
-1:1
0:8:1
-1:1
3:2:1
0:-1
7:2:1
1:-1
1:8:1
-1:1
0:6:1
-1:-1
0:10:1
-1:1
0:4:1
-1:1
0:2:1
-1:-1
0:7:1
-1:-1
0:8:1
-1:-1
1:4:1
-1:1
0:0:1
-1:-1
0:6:1
-1:-1
0:3:1
-1:-1
0:3:1
-1:-1
0:1:1
-1:-1
0:9:1
-1:-1
2:5:1
0:1
0:3:2
-1:-1
0:2:1
-1:-1
0:11:1
-1:-1
0:4:1
-1:1
0:9:1
-1:-1
0:4:1
-1:-1
0:4:1
-1:-1
0:5:1
-1:-1
0:5:1
-1:-1
4:12:1
1:1
0:0:2
-1:-1
0:4:1
-1:-1
0:1:1
-1:-1
0:17:1
-1:-1
0:4:1
-1:-1
0:2:1
-1:-1
0:2:1
-1:-1
0:6:1
-1:-1
0:7:1
-1:-1
0:10:1
-1:-1
0:6:1
-1:-1
1:10:1
-1:1
0:2:1
-1:-1
0:2:1
-1:-1
0:12:1
-1:-1
1:5:1
-1:-1
0:2:1
-1:-1
0:7:1
-1:-1
0:7:1
-1:-1
0:6:1
-1:1
0:2:1
-1:-1
0:6:1
-1:-1
0:8:1
-1:-1
0:2:1
-1:-1
0:12:1
-1:-1
2:6:1
0:1
2:5:2
0:-1
0:5:2
-1:-1
0:6:1
-1:-1
0:1:1
-1:1
0:13:1
-1:-1
0:6:1
-1:-1
2:1:1
0:-1
2:7:1
0:-1
0:3:1
-1:-1
0:5:1
-1:-1
0:7:1
-1:-1
0:8:1
-1:1
0:6:1
-1:-1
0:10:1
-1:-1
0:7:1
-1:-1
2:9:1
0:-1
0:11:1
-1:-1
0:6:1
-1:-1
0:7:1
-1:1
0:3:1
-1:-1
0:11:1
-1:1
0:9:1
-1:-1
0:1:1
-1:-1
0:10:1
-1:-1
0:7:1
-1:-1
0:6:1
-1:-1
0:1:1
-1:-1
2:8:1
0:-1
3:2:1
0:-1
1:11:1
-1:-1
0:4:1
-1:-1
1:4:1
-1:-1
0:14:1
-1:-1
1:3:1
-1:-1
0:13:1
-1:-1
0:6:1
-1:-1
0:4:1
-1:-1
0:4:1
-1:-1
2:4:1
0:-1
0:3:1
-1:-1
2:5:1
0:-1
0:12:1
-1:1
0:1:1
-1:-1
0:5:1
-1:-1
0:7:1
-1:1
0:12:1
-1:-1
0:5:1
-1:-1
0:12:1
-1:-1
1:2:1
-1:-1
0:4:1
-1:-1
0:4:1
-1:-1
0:9:1
-1:-1
0:6:1
-1:-1
1:6:1
-1:-1
2:4:1
0:-1
3:3:1
0:-1
1:12:1
-1:-1
0:13:1
-1:-1
1:8:1
-1:-1
0:3:1
-1:-1
1:13:1
-1:-1
0:13:1
-1:-1
0:3:1
-1:-1
1:6:1
-1:-1
0:7:1
-1:-1
0:10:1
-1:-1
0:4:1
-1:-1
0:7:1
-1:-1
1:7:1
-1:-1
0:8:1
-1:-1
0:4:1
-1:-1
2:6:1
0:-1
0:12:1
-1:-1
0:7:1
-1:-1
0:1:1
-1:-1
0:5:1
-1:-1
0:6:1
-1:-1
0:5:1
-1:-1
1:5:1
-1:-1
1:12:1
-1:-1
0:8:1
-1:-1
0:6:1
-1:-1
2:6:1
0:-1
0:11:1
-1:-1
0:1:1
-1:-1
2:6:1
0:-1
0:4:1
-1:-1
0:10:1
-1:-1
0:9:1
-1:-1
0:17:1
-1:-1
0:2:1
-1:-1
0:4:1
-1:-1
0:4:1
-1:-1
0:3:1
-1:-1
0:7:1
-1:1
0:12:1
-1:-1
0:0:1
-1:-1
0:10:1
-1:1
0:8:1
-1:-1
0:5:1
-1:-1
0:4:1
-1:-1
0:6:1
-1:-1
0:2:1
-1:-1
1:6:1
-1:-1
0:4:1
-1:-1
2:4:1
0:-1
0:7:1
-1:-1
0:8:1
-1:-1
0:5:1
-1:-1
0:3:1
-1:1
0:5:1
-1:-1
0:9:1
-1:-1
0:5:1
-1:-1
0:4:1
-1:-1
0:10:1
-1:-1
2:3:1
0:-1
0:7:1
-1:-1
0:3:1
-1:-1
0:5:1
-1:1
0:5:1
-1:-1
0:12:1
-1:-1
0:8:1
-1:-1
0:3:1
-1:-1
0:2:1
-1:-1
4:1:1
1:-1
0:3:1
-1:1
3:3:1
0:-1
0:1:1
-1:-1
0:2:1
-1:-1
2:3:1
0:-1
0:5:1
-1:-1
0:2:1
-1:-1
2:2:1
0:1
0:2:2
-1:-1
0:2:1
-1:-1
1:1:1
-1:-1
0:1:1
-1:-1
0:2:1
-1:-1
1:3:1
-1:-1
0:2:1
-1:1
0:1:1
-1:-1
2:3:1
0:-1
2:1:1
0:-1
4:3:1
1:-1
0:0:1
-1:-1
3:2:1
0:-1
0:2:1
-1:-1
0:2:1
-1:-1
0:4:1
-1:-1
2:4:1
0:-1
0:2:1
-1:-1
3:3:1
0:-1
4:3:1
1:1
4:2:2
1:-1
2:5:2
0:-1
2:3:2
0:-1
2:2:2
0:1
1:5:3
-1:-1
0:5:2
-1:-1
3:3:1
0:1
5:4:2
1:0
2:5:3
0:-1
3:4:3
0:-1
0:7:3
-1:0
0:4:2
-1:0
5:5:1
1:-1
0:3:1
-1:-1
0:4:1
-1:-1
4:1:1
1:-1
6:2:1
1:-1
6:3:1
1:-1
3:6:1
0:-1
5:6:1
1:1
0:3:2
-1:-1
0:5:1
-1:-1
0:11:1
-1:-1
2:7:1
0:-1
3:3:1
0:-1
2:5:1
0:-1
0:4:1
-1:-1
3:3:1
0:-1
0:6:1
-1:1
6:4:1
1:-1
6:2:1
1:-1
2:6:1
0:-1
0:2:1
-1:1
2:5:1
0:-1
0:4:1
-1:-1
4:4:1
1:-1
2:8:1
0:-1
0:3:1
-1:1
5:6:1
1:-1
5:1:1
1:-1
0:7:1
-1:-1
4:6:1
1:-1
4:8:1
1:-1
2:6:1
0:-1
1:3:1
-1:-1
5:2:1
1:-1
4:3:1
1:-1
5:4:1
1:-1
0:5:1
-1:1
2:3:1
0:-1
4:3:1
1:1
6:12:2
1:-1
6:5:2
1:-1
0:4:2
-1:0
7:8:1
1:-1
1:4:1
-1:-1
2:6:1
0:-1
6:3:1
1:-1
0:7:1
-1:-1
0:3:1
-1:-1
4:3:1
1:-1
0:2:1
-1:-1
3:6:1
0:-1
0:4:1
-1:-1
0:6:1
-1:-1
3:2:1
0:-1
0:2:1
-1:-1
4:4:1
1:-1
1:5:1
-1:-1
6:4:1
1:-1
0:2:1
-1:-1
0:3:1
-1:-1
5:4:1
1:-1
1:4:1
-1:-1
2:4:1
0:-1
3:6:1
0:-1
2:6:1
0:-1
0:5:1
-1:-1
8:6:1
2:-1
2:3:1
0:-1
0:2:1
-1:-1
0:3:1
-1:-1
3:6:1
0:-1
0:5:1
-1:1
0:7:1
-1:-1
0:5:1
-1:-1
1:0:1
-1:-1
0:2:1
-1:-1
1:5:1
-1:-1
0:5:1
-1:-1
1:5:1
-1:-1
0:9:1
-1:-1
0:5:1
-1:-1
0:1:1
-1:-1
0:2:1
-1:-1
3:5:1
0:-1
0:5:1
-1:1
0:6:1
-1:-1
1:19:1
-1:1
0:13:1
-1:-1
2:5:1
0:-1
3:2:1
0:1
0:7:2
-1:-1
0:2:1
-1:-1
0:4:1
-1:-1
1:2:1
-1:-1
0:6:1
-1:-1
0:5:1
-1:-1
0:1:1
-1:1
0:3:1
-1:-1
3:3:1
0:-1
0:9:1
-1:-1
0:4:1
-1:-1
0:3:1
-1:1
1:1:1
-1:-1
0:5:1
-1:1
0:5:1
-1:-1
1:8:1
-1:1
0:9:1
-1:-1
2:10:1
0:-1
0:2:1
-1:1
0:5:1
-1:-1
0:5:1
-1:-1
1:5:1
-1:-1
0:4:1
-1:-1
1:6:1
-1:-1
0:5:1
-1:-1
0:3:1
-1:-1
0:2:1
-1:-1
2:5:1
0:-1
0:1:1
-1:-1
0:5:1
-1:-1
0:4:1
-1:-1
0:3:1
-1:-1
0:4:1
-1:-1
0:3:1
-1:-1
0:6:1
-1:-1
0:3:1
-1:-1
0:4:1
-1:1
0:5:1
-1:-1
0:2:1
-1:1
4:4:1
1:-1
1:4:1
-1:-1
0:5:1
-1:-1
0:3:1
-1:-1
0:7:1
-1:-1
0:3:1
-1:-1
0:5:1
-1:-1
0:3:1
-1:1
0:1:1
-1:-1
0:3:1
-1:-1
1:3:1
-1:-1
4:2:1
1:-1
0:8:1
-1:-1
0:3:1
-1:-1
3:4:1
0:-1
4:2:1
1:1
1:5:2
-1:-1
0:11:1
-1:-1
0:5:1
-1:-1
0:4:1
-1:-1
0:2:1
-1:-1
0:3:1
-1:-1
0:7:1
-1:-1
0:4:1
-1:-1
0:1:1
-1:-1
0:1:1
-1:-1
0:7:1
-1:-1
0:4:1
-1:-1
0:8:1
-1:-1
0:4:1
-1:-1
0:1:1
-1:-1
0:3:1
-1:-1
0:7:1
-1:-1
0:5:1
-1:-1
0:3:1
-1:-1
0:7:1
-1:-1
0:4:1
-1:-1
1:2:1
-1:-1
0:3:1
-1:1
0:2:1
-1:-1
0:0:1
-1:-1
2:3:1
0:-1
0:6:1
-1:-1
3:9:1
0:-1
2:10:1
0:1
0:7:2
-1:-1
0:8:1
-1:-1
0:3:1
-1:-1
0:1:1
-1:-1
0:7:1
-1:-1
3:2:1
0:-1
2:9:1
0:-1
3:2:1
0:-1
0:3:1
-1:1
0:5:1
-1:-1
0:2:1
-1:-1
0:4:1
-1:-1
0:2:1
-1:-1
0:2:1
-1:-1
0:3:1
-1:-1
0:10:1
-1:-1
2:12:1
0:-1
0:1:1
-1:-1
3:5:1
0:-1
0:2:1
-1:-1
1:3:1
-1:-1
3:4:1
0:-1
0:5:1
-1:1
3:4:1
0:-1
0:1:1
-1:-1
0:4:1
-1:1
1:5:1
-1:-1
2:3:1
0:-1
2:4:1
0:-1
0:4:1
-1:-1
0:5:1
-1:-1
0:3:1
-1:-1
0:8:1
-1:-1
0:3:1
-1:1
0:12:1
-1:-1
0:5:1
-1:1
3:5:1
0:-1
2:2:1
0:-1
0:14:1
-1:1
1:10:1
-1:-1
0:4:1
-1:-1
2:3:1
0:-1
0:0:1
-1:-1
1:5:1
-1:-1
3:5:1
0:-1
3:1:1
0:-1
0:5:1
-1:-1
0:7:1
-1:-1
1:5:1
-1:-1
0:2:1
-1:-1
3:3:1
0:-1
0:3:1
-1:-1
1:2:1
-1:-1
0:6:1
-1:-1
0:2:1
-1:-1
0:2:1
-1:-1
3:5:1
0:-1
2:6:1
0:-1
0:3:1
-1:-1
0:6:1
-1:1
0:1:1
-1:-1
2:3:1
0:-1
0:4:1
-1:1
0:3:1
-1:-1
2:3:1
0:-1
0:5:1
-1:-1
0:5:1
-1:-1
0:6:1
-1:-1
0:2:1
-1:-1
1:6:1
-1:-1
2:2:1
0:1
3:5:2
0:-1
2:5:2
0:1
0:9:3
-1:0
0:5:2
-1:-1
0:7:1
-1:-1
0:6:1
-1:-1
0:1:1
-1:-1
0:4:1
-1:-1
0:5:1
-1:-1
0:4:1
-1:-1
0:5:1
-1:-1
1:8:1
-1:-1
0:7:1
-1:-1
0:3:1
-1:-1
0:2:1
-1:-1
0:2:1
-1:-1
0:3:1
-1:-1
0:5:1
-1:-1
3:2:1
0:-1
0:4:1
-1:1
0:3:1
-1:-1
0:1:1
-1:-1
0:4:1
-1:-1
0:4:1
-1:-1
2:3:1
0:-1
0:3:1
-1:-1
3:7:1
0:-1
1:8:1
-1:1
0:1:1
-1:-1
0:5:1
-1:-1
4:6:1
1:-1
0:4:1
-1:-1
1:2:1
-1:-1
0:3:1
-1:-1
0:4:1
-1:-1
0:5:1
-1:-1
0:7:1
-1:-1
0:6:1
-1:-1
0:4:1
-1:-1
0:4:1
-1:-1
0:6:1
-1:-1
3:4:1
0:-1
2:2:1
0:-1
1:2:1
-1:-1
2:5:1
0:-1
2:5:1
0:-1
0:2:1
-1:-1
0:4:1
-1:-1
0:5:1
-1:-1
0:4:1
-1:-1
2:5:1
0:-1
0:8:1
-1:-1
0:2:1
-1:-1
3:4:1
0:-1
0:1:1
-1:-1
1:5:1
-1:-1
0:2:1
-1:-1
2:5:1
0:-1
3:8:1
0:-1
0:7:1
-1:1
3:3:1
0:1
0:2:2
-1:1
1:3:2
-1:-1
3:4:1
0:-1
0:9:1
-1:-1
0:3:1
-1:-1
0:9:1
-1:1
0:14:1
-1:-1
0:3:1
-1:-1
0:3:1
-1:-1
2:3:1
0:-1
0:3:1
-1:1
1:3:1
-1:-1
3:2:1
0:1
0:4:2
-1:0
0:4:1
-1:-1
0:2:1
-1:-1
3:4:1
0:-1
3:2:1
0:1
0:8:2
-1:0
0:3:1
-1:-1
3:7:1
0:-1
0:2:1
-1:1
0:3:1
-1:-1
1:11:1
-1:-1
0:5:1
-1:-1
0:10:1
-1:-1
0:3:1
-1:-1
0:3:1
-1:-1
0:0:1
-1:-1
0:8:1
-1:-1
2:2:1
0:-1
0:5:1
-1:-1
0:1:1
-1:-1
0:5:1
-1:1
0:1:1
-1:-1
0:6:1
-1:-1
0:4:1
-1:-1
2:2:1
0:-1
4:3:1
1:-1
0:6:1
-1:-1
1:4:1
-1:-1
1:13:1
-1:-1
1:15:1
-1:-1
0:8:1
-1:-1
0:5:1
-1:-1
0:6:1
-1:-1
0:4:1
-1:-1
0:9:1
-1:-1
0:10:1
-1:-1
0:14:1
-1:1
2:9:1
0:-1
0:10:1
-1:-1
0:12:1
-1:-1
0:13:1
-1:-1
2:9:1
0:-1
0:13:1
-1:-1
0:12:1
-1:1
0:13:1
-1:-1
0:11:1
-1:-1
0:9:1
-1:-1
1:12:1
-1:-1
0:17:1
-1:-1
0:9:1
-1:-1
2:12:1
0:-1
2:10:1
0:-1
0:7:1
-1:-1
0:9:1
-1:1
0:12:1
-1:-1
0:12:1
-1:-1
0:15:1
-1:-1
0:13:1
-1:-1
0:10:1
-1:-1
2:14:1
0:-1
1:12:1
-1:-1
1:15:1
-1:-1
0:14:1
-1:-1
0:20:1
-1:1
0:10:1
-1:1
0:24:1
-1:-1
0:20:1
-1:-1
0:19:1
-1:-1
0:18:1
-1:-1
4:9:1
1:-1
1:13:1
-1:-1
0:12:1
-1:-1
1:14:1
-1:-1
1:25:1
-1:-1
2:13:1
0:-1
2:13:1
0:-1
0:24:1
-1:-1
0:17:1
-1:-1
0:16:1
-1:-1
1:22:1
-1:1
0:13:1
-1:-1
0:25:1
-1:-1
0:22:1
-1:1
0:20:1
-1:-1
0:21:1
-1:1
0:9:1
-1:-1
0:19:1
-1:-1
0:25:1
-1:1
0:21:1
-1:-1
2:13:1
0:1
0:12:2
-1:-1
1:11:1
-1:1
2:17:1
0:-1
0:19:1
-1:-1
0:15:1
-1:-1
0:14:1
-1:-1
0:24:1
-1:1
0:26:1
-1:-1
0:25:1
-1:1
0:15:1
-1:1
0:22:1
-1:1
1:19:1
-1:1
0:15:1
-1:-1
0:20:1
-1:1
0:17:1
-1:-1
2:16:1
0:1
0:17:2
-1:0
0:18:1
-1:-1
1:25:1
-1:-1
0:66:1
-1:1
1:38:1
-1:-1
0:24:1
-1:-1
1:17:1
-1:1
0:23:1
-1:1
0:24:1
-1:1
0:9:1
-1:1
0:27:1
-1:1
1:9:1
-1:1
0:25:1
-1:-1
0:25:1
-1:1
0:39:1
-1:1
0:25:1
-1:-1
0:18:1
-1:-1
1:19:1
-1:1
2:24:1
0:-1
0:37:1
-1:-1
2:21:1
0:-1
0:39:1
-1:1
2:24:1
0:1
2:42:2
0:0
0:21:2
-1:0
2:36:1
0:1
0:23:2
-1:-1
0:34:1
-1:1
1:27:1
-1:1
0:40:1
-1:1
0:22:1
-1:1
1:34:1
-1:1
4:52:1
1:1
0:32:2
-1:-1
1:30:1
-1:1
0:35:1
-1:1
0:42:1
-1:1
1:36:1
-1:1
0:27:1
-1:1
0:22:1
-1:1
4:8:1
1:1
0:64:2
-1:-1
1:40:1
-1:1
0:13:1
-1:1
1:7:1
-1:1
0:20:1
-1:1
0:12:1
-1:1
0:14:1
-1:1
0:20:1
-1:1
0:21:1
-1:1
2:5:1
0:-1
0:21:1
-1:-1
0:5:1
-1:-1
0:9:1
-1:-1
2:7:1
0:-1
0:14:1
-1:-1
1:10:1
-1:1
0:29:1
-1:1
0:23:1
-1:1
0:14:1
-1:1
1:27:1
-1:-1
2:20:1
0:-1
0:16:1
-1:-1
0:18:1
-1:1
0:31:1
-1:-1
0:21:1
-1:1
0:33:1
-1:1
0:30:1
-1:1
0:27:1
-1:-1
0:28:1
-1:-1
0:27:1
-1:1
2:22:1
0:1
2:24:2
0:-1
4:24:2
1:0
0:31:3
-1:-1
0:17:2
-1:-1
0:21:1
-1:1
2:18:1
0:1
0:13:2
-1:-1
0:65:1
-1:1
0:27:1
-1:1
1:13:1
-1:-1
0:19:1
-1:-1
1:9:1
-1:1
0:6:1
-1:-1
0:18:1
-1:-1
0:15:1
-1:-1
0:10:1
-1:-1
0:18:1
-1:1
0:14:1
-1:-1
0:19:1
-1:1
0:14:1
-1:-1
0:14:1
-1:1
0:19:1
-1:1
0:10:1
-1:-1
1:13:1
-1:1
0:14:1
-1:-1
0:22:1
-1:-1
0:27:1
-1:-1
1:27:1
-1:1
1:22:1
-1:-1
0:18:1
-1:-1
0:5:1
-1:-1
0:29:1
-1:1
2:13:1
0:1
0:1:2
-1:-1
0:4:1
-1:-1
0:3:1
-1:-1
0:7:1
-1:-1
0:5:1
-1:1
0:6:1
-1:-1
0:7:1
-1:-1
0:10:1
-1:-1
0:2:1
-1:-1
0:6:1
-1:-1
0:1:1
-1:-1
1:3:1
-1:1
0:2:1
-1:-1
0:2:1
-1:-1
0:1:1
-1:-1
0:2:1
-1:-1
0:1:1
-1:-1
0:2:1
-1:-1
0:2:1
-1:-1
0:2:1
-1:-1
0:2:1
-1:-1
0:1:1
-1:-1
0:1:1
-1:-1
0:0:1
-1:-1
0:0:1
-1:-1
0:5:1
-1:-1
0:2:1
-1:1
0:3:1
-1:1
0:10:1
-1:1
0:5:1
-1:-1
0:5:1
-1:-1
0:6:1
-1:1
0:9:1
-1:-1
1:5:1
-1:-1
0:9:1
-1:-1
1:12:1
-1:-1
0:9:1
-1:-1
0:12:1
-1:1
0:19:1
-1:-1
0:6:1
-1:1
0:2:1
-1:-1
0:2:1
-1:-1
0:2:1
-1:-1
0:3:1
-1:-1
0:0:1
-1:-1
0:1:1
-1:-1
0:2:1
-1:1
0:1:1
-1:-1
0:1:1
-1:-1
0:2:1
-1:-1
0:3:1
-1:-1
0:3:1
-1:-1
0:7:1
-1:-1
0:2:1
-1:1
0:2:1
-1:1
0:3:1
-1:-1
0:1:1
-1:-1
0:1:1
-1:-1
0:2:1
-1:1
0:3:1
-1:-1
0:3:1
-1:-1
0:2:1
-1:-1
0:5:1
-1:-1
0:2:1
-1:-1
0:0:1
-1:-1
0:4:1
-1:-1
0:4:1
-1:-1
2:8:1
0:-1
0:5:1
-1:-1
0:3:1
-1:-1
0:9:1
-1:-1
0:9:1
-1:1
0:1:1
-1:-1
1:3:1
-1:-1
0:7:1
-1:-1
0:5:1
-1:-1
1:3:1
-1:-1
0:0:1
-1:-1
0:4:1
-1:-1
0:2:1
-1:-1
0:4:1
-1:1
0:6:1
-1:-1
3:5:1
0:-1
0:4:1
-1:-1
0:3:1
-1:-1
0:5:1
-1:-1
0:1:1
-1:-1
0:5:1
-1:1
0:1:1
-1:-1
0:4:1
-1:-1
1:7:1
-1:-1
0:2:1
-1:-1
0:6:1
-1:1
1:1:1
-1:-1
0:1:1
-1:-1
0:1:1
-1:-1
0:7:1
-1:-1
3:13:1
0:-1
0:35:1
-1:-1
1:19:1
-1:1
0:21:1
-1:1
0:27:1
-1:1
0:26:1
-1:1
0:28:1
-1:1
0:29:1
-1:1
0:20:1
-1:1
0:26:1
-1:1
0:1:1
-1:-1
0:3:1
-1:1
0:0:1
-1:-1
0:8:1
-1:-1
0:2:1
-1:-1
0:7:1
-1:-1
0:11:1
-1:-1
0:4:1
-1:-1
2:6:1
0:-1
0:6:1
-1:-1
0:2:1
-1:-1
0:1:1
-1:-1
2:5:1
0:-1
0:5:1
-1:-1
0:3:1
-1:-1
2:7:1
0:-1
1:5:1
-1:-1
1:1:1
-1:-1
0:4:1
-1:-1
1:6:1
-1:1
0:1:1
-1:-1
0:1:1
-1:-1
0:5:1
-1:1
1:4:1
-1:-1
0:4:1
-1:-1
1:3:1
-1:-1
0:0:1
-1:-1
0:1:1
-1:-1
0:2:1
-1:-1
0:9:1
-1:-1
1:1:1
-1:-1
1:4:1
-1:-1
0:4:1
-1:-1
0:1:1
-1:1
0:8:1
-1:-1
0:3:1
-1:-1
0:12:1
-1:-1
0:8:1
-1:-1
0:32:1
-1:1
0:17:1
-1:-1
0:25:1
-1:1
0:21:1
-1:-1
0:21:1
-1:-1
0:21:1
-1:1
0:22:1
-1:1
0:24:1
-1:1
0:23:1
-1:-1
1:21:1
-1:1
1:23:1
-1:-1
0:18:1
-1:-1
0:29:1
-1:1
1:25:1
-1:-1
1:27:1
-1:-1
0:26:1
-1:-1
0:10:1
-1:1
0:3:1
-1:-1
0:5:1
-1:-1
2:3:1
0:-1
0:2:1
-1:-1
0:7:1
-1:-1
0:5:1
-1:-1
0:1:1
-1:-1
0:10:1
-1:1
2:8:1
0:-1
0:4:1
-1:1
0:2:1
-1:-1
0:3:1
-1:-1
0:8:1
-1:-1
0:0:1
-1:-1
0:3:1
-1:-1
0:3:1
-1:1
0:1:1
-1:-1
0:2:1
-1:1
1:2:1
-1:-1
0:2:1
-1:-1
0:3:1
-1:-1
0:1:1
-1:-1
0:9:1
-1:1
0:8:1
-1:1
2:12:1
0:-1
0:8:1
-1:1
0:8:1
-1:-1
0:8:1
-1:-1
0:10:1
-1:-1
2:14:1
0:-1
4:7:1
1:-1
0:10:1
-1:-1
0:14:1
-1:-1
0:8:1
-1:-1
0:1:1
-1:-1
0:1:1
-1:-1
0:6:1
-1:-1
0:2:1
-1:-1
0:2:1
-1:1
0:1:1
-1:-1
0:6:1
-1:-1
0:9:1
-1:-1
0:6:1
-1:-1
1:3:1
-1:-1
1:6:1
-1:-1
0:2:1
-1:-1
0:5:1
-1:-1
0:1:1
-1:-1
0:6:1
-1:-1
0:6:1
-1:-1
0:3:1
-1:-1
0:5:1
-1:-1
0:2:1
-1:1
0:1:1
-1:-1
0:4:1
-1:-1
0:2:1
-1:-1
0:4:1
-1:1
0:7:1
-1:1
0:6:1
-1:-1
0:6:1
-1:-1
2:16:1
0:-1
2:30:1
0:1
1:21:2
-1:0
0:20:1
-1:-1
3:24:1
0:1
2:23:2
0:0
0:20:2
-1:0
0:16:1
-1:-1
0:21:1
-1:-1
2:23:1
0:-1
0:24:1
-1:-1
2:20:1
0:1
1:23:2
-1:-1
0:23:1
-1:-1
0:15:1
-1:-1
3:20:1
0:1
0:18:2
-1:-1
2:14:1
0:-1
0:2:1
-1:-1
0:5:1
-1:1
6:1:1
1:-1
0:0:1
-1:-1
0:5:1
-1:-1
0:3:1
-1:1
0:2:1
-1:-1
0:10:1
-1:1
0:6:1
-1:-1
0:4:1
-1:1
0:5:1
-1:-1
0:6:1
-1:-1
1:7:1
-1:1
0:2:1
-1:-1
0:6:1
-1:-1
0:5:1
-1:-1
0:0:1
-1:-1
0:2:1
-1:-1
0:2:1
-1:1
0:6:1
-1:-1
0:5:1
-1:-1
5:10:1
1:-1
1:11:1
-1:-1
0:6:1
-1:-1
0:4:1
-1:-1
0:7:1
-1:-1
0:5:1
-1:1
0:4:1
-1:-1
0:3:1
-1:-1
1:5:1
-1:-1
0:4:1
-1:-1
0:1:1
-1:-1
0:3:1
-1:-1
0:1:1
-1:-1
0:5:1
-1:-1
0:5:1
-1:1
2:13:1
0:-1
0:2:1
-1:-1
0:1:1
-1:-1
1:4:1
-1:-1
0:4:1
-1:-1
0:8:1
-1:-1
0:7:1
-1:-1
0:6:1
-1:-1
2:4:1
0:-1
2:4:1
0:-1
0:4:1
-1:1
0:5:1
-1:1
4:2:1
1:-1
0:2:1
-1:-1
0:13:1
-1:-1
0:12:1
-1:-1
0:3:1
-1:-1
1:1:1
-1:1
0:42:1
-1:1
0:34:1
-1:1
2:29:1
0:1
0:37:2
-1:0
0:38:1
-1:-1
0:23:1
-1:-1
2:28:1
0:1
1:24:2
-1:0
1:38:1
-1:1
0:24:1
-1:-1
0:30:1
-1:1
0:27:1
-1:1
1:52:1
-1:1
0:29:1
-1:-1
0:42:1
-1:1
0:23:1
-1:1
0:30:1
-1:-1
0:26:1
-1:-1
0:23:1
-1:1
2:22:1
0:1
2:28:2
0:-1
2:20:2
0:-1
0:21:2
-1:-1
1:31:1
-1:1
0:20:1
-1:-1
1:14:1
-1:1
0:9:1
-1:-1
0:3:1
-1:1
1:2:1
-1:-1
0:8:1
-1:-1
0:6:1
-1:-1
0:7:1
-1:1
0:14:1
-1:-1
6:9:1
1:-1
0:7:1
-1:-1
0:16:1
-1:-1
0:16:1
-1:-1
0:14:1
-1:1
1:10:1
-1:1
2:16:1
0:-1
0:11:1
-1:1
0:11:1
-1:1
0:17:1
-1:1
0:14:1
-1:1
0:16:1
-1:1
0:8:1
-1:-1
0:23:1
-1:-1
0:19:1
-1:-1
0:17:1
-1:1
1:8:1
-1:-1
0:12:1
-1:-1
0:3:1
-1:1
0:2:1
-1:-1
0:8:1
-1:-1
0:5:1
-1:-1
0:7:1
-1:-1
0:1:1
-1:-1
0:11:1
-1:-1
1:10:1
-1:1
0:2:1
-1:1
0:2:1
-1:-1
0:5:1
-1:-1
0:6:1
-1:1
0:3:1
-1:-1
0:3:1
-1:-1
0:3:1
-1:-1
0:6:1
-1:-1
0:1:1
-1:-1
0:1:1
-1:1
0:1:1
-1:-1
0:11:1
-1:-1
0:14:1
-1:-1
0:3:1
-1:-1
0:1:1
-1:-1
2:1:1
0:-1
0:1:1
-1:-1
2:12:1
0:-1
0:6:1
-1:-1
0:12:1
-1:1
0:4:1
-1:-1
0:20:1
-1:1
0:15:1
-1:-1
0:12:1
-1:-1
0:22:1
-1:-1
0:17:1
-1:1
0:17:1
-1:1
2:19:1
0:1
0:16:2
-1:0
2:22:1
0:-1
0:20:1
-1:-1
0:18:1
-1:1
2:8:1
0:-1
0:10:1
-1:1
1:10:1
-1:-1
0:6:1
-1:-1
0:9:1
-1:1
6:7:1
1:1
0:9:2
-1:0
0:12:1
-1:1
0:8:1
-1:-1
0:6:1
-1:-1
0:1:1
-1:-1
0:6:1
-1:-1
0:1:1
-1:-1
0:3:1
-1:1
0:1:1
-1:1
0:2:1
-1:-1
0:4:1
-1:-1
2:2:1
0:1
0:9:2
-1:-1
0:4:1
-1:-1
0:4:1
-1:-1
0:2:1
-1:-1
0:2:1
-1:-1
0:7:1
-1:-1
1:6:1
-1:1
0:11:1
-1:-1
0:5:1
-1:1
0:5:1
-1:-1
0:9:1
-1:1
0:2:1
-1:1
0:7:1
-1:1
0:9:1
-1:1
0:8:1
-1:-1
1:8:1
-1:-1
1:17:1
-1:-1
0:7:1
-1:-1
1:11:1
-1:-1
0:9:1
-1:-1
0:8:1
-1:-1
0:3:1
-1:1
0:4:1
-1:-1
0:2:1
-1:-1
2:2:1
0:-1
0:3:1
-1:-1
0:10:1
-1:1
0:2:1
-1:1
0:13:1
-1:-1
1:11:1
-1:1
0:4:1
-1:-1
0:1:1
-1:-1
0:6:1
-1:-1
2:7:1
0:1
2:1:2
0:-1
1:4:2
-1:-1
0:6:1
-1:-1
0:9:1
-1:-1
1:3:1
-1:1
1:1:1
-1:-1
0:4:1
-1:-1
0:2:1
-1:-1
0:2:1
-1:-1
0:4:1
-1:1
0:9:1
-1:1
0:1:1
-1:-1
0:7:1
-1:-1
0:1:1
-1:-1
0:8:1
-1:-1
1:4:1
-1:-1
0:2:1
-1:1
0:1:1
-1:-1
2:8:1
0:-1
0:1:1
-1:-1
0:2:1
-1:1
0:5:1
-1:-1
7:40:1
1:1
1:15:2
-1:-1
0:33:1
-1:-1
0:16:1
-1:1
2:16:1
0:1
0:18:2
-1:-1
0:21:1
-1:1
0:24:1
-1:1
0:14:1
-1:-1
0:19:1
-1:1
0:21:1
-1:-1
0:24:1
-1:1
0:18:1
-1:1
0:22:1
-1:1
0:5:1
-1:-1
0:7:1
-1:1
0:4:1
-1:1
0:6:1
-1:-1
0:4:1
-1:-1
0:5:1
-1:-1
0:7:1
-1:-1
0:1:1
-1:-1
0:3:1
-1:-1
0:1:1
-1:-1
0:8:1
-1:-1
1:8:1
-1:-1
0:2:1
-1:-1
0:6:1
-1:-1
0:1:1
-1:-1
0:4:1
-1:1
1:2:1
-1:-1
0:6:1
-1:-1
0:6:1
-1:-1
1:9:1
-1:-1
0:10:1
-1:-1
0:2:1
-1:-1
0:2:1
-1:1
0:3:1
-1:-1
0:3:1
-1:-1
0:6:1
-1:-1
0:10:1
-1:-1
0:9:1
-1:-1
0:7:1
-1:-1
0:8:1
-1:-1
0:13:1
-1:1
0:7:1
-1:1
0:2:1
-1:-1
0:2:1
-1:-1
0:4:1
-1:-1
3:1:1
0:-1
0:1:1
-1:-1
0:0:1
-1:-1
0:7:1
-1:-1
0:37:1
-1:1
1:62:1
-1:1
2:23:1
0:1
0:6:2
-1:-1
0:1:1
-1:-1
0:2:1
-1:-1
2:0:1
0:-1
0:3:1
-1:-1
0:3:1
-1:-1
3:1:1
0:-1
0:0:1
-1:-1
0:0:1
-1:-1
0:1:1
-1:-1
0:4:1
-1:-1
0:3:1
-1:-1
0:0:1
-1:-1
0:4:1
-1:-1
0:2:1
-1:-1
0:3:1
-1:-1
0:8:1
-1:-1
1:7:1
-1:-1
0:25:1
-1:-1
0:16:1
-1:1
1:47:1
-1:-1
0:71:1
-1:-1
0:59:1
-1:1
0:47:1
-1:-1
0:5:1
-1:-1
0:3:1
-1:1
0:1:1
-1:-1
0:1:1
-1:-1
0:2:1
-1:-1
0:2:1
-1:-1
0:1:1
-1:-1
0:2:1
-1:-1
1:3:1
-1:-1
0:1:1
-1:-1
0:4:1
-1:-1
6:2:1
1:-1
0:6:1
-1:1
0:3:1
-1:-1
0:4:1
-1:-1
2:6:1
0:-1
0:9:1
-1:-1
1:6:1
-1:-1
8:4:1
2:-1
0:2:1
-1:-1
0:6:1
-1:-1
0:1:1
-1:-1
0:6:1
-1:-1
1:9:1
-1:-1
0:2:1
-1:1
0:5:1
-1:-1
0:2:1
-1:-1
0:0:1
-1:-1
0:3:1
-1:-1
0:4:1
-1:-1
0:3:1
-1:-1
0:4:1
-1:-1
0:4:1
-1:-1
1:6:1
-1:-1
0:3:1
-1:-1
0:2:1
-1:-1
0:3:1
-1:-1
0:5:1
-1:-1
0:2:1
-1:-1
2:3:1
0:-1
0:1:1
-1:-1
0:1:1
-1:-1
0:3:1
-1:-1
0:2:1
-1:-1
0:0:1
-1:-1
0:3:1
-1:-1
0:4:1
-1:-1
0:3:1
-1:-1
0:1:1
-1:-1
2:4:1
0:-1
0:9:1
-1:1
0:2:1
-1:1
0:4:1
-1:-1
0:4:1
-1:-1
0:0:1
-1:-1
0:5:1
-1:-1
0:1:1
-1:-1
0:5:1
-1:-1
0:3:1
-1:-1
0:3:1
-1:-1
0:4:1
-1:-1
0:7:1
-1:-1
0:6:1
-1:-1
7:1:1
1:-1
0:3:1
-1:1
0:4:1
-1:-1
0:11:1
-1:-1
0:6:1
-1:1
0:6:1
-1:-1
1:7:1
-1:-1
0:3:1
-1:-1
0:8:1
-1:-1
2:6:1
0:-1
0:2:1
-1:-1
1:7:1
-1:-1
0:4:1
-1:-1
0:1:1
-1:-1
0:6:1
-1:-1
0:7:1
-1:1
0:4:1
-1:-1
0:6:1
-1:-1
0:6:1
-1:1
1:5:1
-1:-1
0:3:1
-1:-1
0:2:1
-1:1
0:5:1
-1:-1
0:4:1
-1:-1
0:8:1
-1:-1
2:7:1
0:1
0:4:2
-1:-1
0:3:1
-1:-1
6:2:1
1:-1
1:13:1
-1:-1
1:6:1
-1:-1
6:4:1
1:-1
0:3:1
-1:1
0:4:1
-1:-1
0:8:1
-1:-1
0:9:1
-1:1
1:13:1
-1:-1
5:4:1
1:-1
0:6:1
-1:-1
3:6:1
0:-1
0:7:1
-1:-1
0:3:1
-1:1
0:6:1
-1:-1
1:4:1
-1:-1
0:6:1
-1:-1
2:5:1
0:1
0:4:2
-1:1
3:2:2
0:-1
2:3:2
0:0
0:6:2
-1:-1
3:2:1
0:-1
1:10:1
-1:-1
0:4:1
-1:-1
4:4:1
1:-1
0:3:1
-1:-1
0:9:1
-1:-1
0:5:1
-1:-1
0:16:1
-1:-1
0:8:1
-1:1
0:3:1
-1:1
0:8:1
-1:-1
0:6:1
-1:-1
0:8:1
-1:-1
0:3:1
-1:1
0:7:1
-1:-1
1:12:1
-1:1
2:2:1
0:-1
0:9:1
-1:-1
1:3:1
-1:-1
0:2:1
-1:1
0:5:1
-1:-1
0:14:1
-1:-1
0:4:1
-1:-1
7:12:1
1:-1
0:7:1
-1:1
0:8:1
-1:-1
0:6:1
-1:-1
0:6:1
-1:-1
0:2:1
-1:-1
3:11:1
0:-1
0:6:1
-1:-1
0:8:1
-1:-1
0:12:1
-1:1
0:3:1
-1:-1
0:12:1
-1:-1
0:3:1
-1:-1
0:2:1
-1:-1
0:3:1
-1:-1
0:11:1
-1:1
1:5:1
-1:-1
0:8:1
-1:-1
0:9:1
-1:1
0:6:1
-1:-1
0:7:1
-1:-1
3:3:1
0:-1
0:4:1
-1:-1
0:12:1
-1:1
1:7:1
-1:-1
3:10:1
0:-1
0:7:1
-1:-1
2:4:1
0:-1
0:4:1
-1:-1
0:5:1
-1:-1
0:10:1
-1:-1
0:3:1
-1:-1
4:6:1
1:-1
0:6:1
-1:-1
0:8:1
-1:1
0:5:1
-1:-1
0:4:1
-1:-1
0:3:1
-1:-1
0:9:1
-1:-1
0:11:1
-1:1
0:9:1
-1:-1
0:8:1
-1:-1
1:12:1
-1:-1
0:10:1
-1:-1
0:2:1
-1:-1
0:3:1
-1:1
0:6:1
-1:-1
1:7:1
-1:-1
0:6:1
-1:-1
0:5:1
-1:-1
4:5:1
1:-1
7:8:1
1:-1
0:5:1
-1:-1
0:5:1
-1:-1
0:2:1
-1:-1
0:4:1
-1:-1
0:12:1
-1:-1
0:3:1
-1:-1
0:4:1
-1:-1
2:4:1
0:-1
1:4:1
-1:1
3:3:1
0:-1
0:8:1
-1:-1
1:7:1
-1:-1
0:4:1
-1:-1
0:5:1
-1:-1
0:7:1
-1:-1
0:10:1
-1:-1
0:5:1
-1:1
1:6:1
-1:-1
0:6:1
-1:-1
0:13:1
-1:-1
0:14:1
-1:1
0:4:1
-1:-1
2:6:1
0:-1
1:4:1
-1:-1
0:10:1
-1:-1
0:14:1
-1:-1
0:2:1
-1:-1
0:9:1
-1:-1
0:0:1
-1:-1
0:15:1
-1:-1
0:7:1
-1:-1
0:4:1
-1:-1
0:9:1
-1:-1
0:7:1
-1:-1
0:4:1
-1:-1
0:5:1
-1:-1
0:1:1
-1:-1
0:7:1
-1:-1
0:10:1
-1:-1
0:4:1
-1:-1
0:3:1
-1:-1
0:2:1
-1:-1
0:5:1
-1:-1
0:7:1
-1:-1
0:6:1
-1:-1
1:9:1
-1:-1
0:3:1
-1:-1
1:8:1
-1:-1
3:6:1
0:-1
0:6:1
-1:1
0:6:1
-1:-1
3:9:1
0:1
0:15:2
-1:-1
0:2:1
-1:1
0:2:1
-1:-1
2:6:1
0:-1
0:2:1
-1:-1
3:5:1
0:-1
3:2:1
0:1
1:4:2
-1:1
3:1:2
0:-1
1:0:2
-1:-1
2:0:1
0:-1
0:1:1
-1:-1
0:2:1
-1:-1
2:2:1
0:-1
2:2:1
0:-1
0:3:1
-1:-1
1:0:1
-1:-1
0:2:1
-1:1
4:1:1
1:-1
2:3:1
0:-1
2:1:1
0:-1
0:3:1
-1:-1
0:2:1
-1:-1
0:2:1
-1:-1
4:5:1
1:-1
0:0:1
-1:-1
0:3:1
-1:-1
0:1:1
-1:-1
0:2:1
-1:1
0:2:1
-1:-1
3:3:1
0:-1
2:2:1
0:-1
0:3:1
-1:1
3:3:1
0:-1
2:4:1
0:-1
1:0:1
-1:-1
4:2:1
1:1
2:3:2
0:-1
0:2:2
-1:-1
0:4:1
-1:-1
6:2:1
1:-1
0:3:1
-1:-1
0:6:1
-1:-1
0:5:1
-1:-1
6:1:1
1:-1
2:2:1
0:-1
6:7:1
1:-1
0:3:1
-1:-1
0:4:1
-1:-1
3:1:1
0:-1
1:6:1
-1:-1
4:3:1
1:-1
4:4:1
1:-1
0:3:1
-1:-1
3:3:1
0:1
4:3:2
1:0
2:5:3
0:0
6:7:3
1:0
4:4:4
1:0
8:6:5
2:0
2:9:6
0:0
0:12:6
-1:0
0:3:5
-1:-1
5:2:4
1:0
5:3:5
1:-1
3:5:5
0:0
0:2:5
-1:-1
4:2:4
1:-1
7:7:4
1:0
0:6:5
-1:0
2:4:4
0:-1
3:8:4
0:0
2:4:4
0:0
8:4:4
2:0
3:6:5
0:0
4:3:5
1:-1
5:4:5
1:-1
8:10:5
2:0
1:10:6
-1:0
0:7:5
-1:1
6:2:5
1:-1
8:5:5
2:0
1:7:6
-1:0
5:6:5
1:0
0:6:6
-1:0
2:4:5
0:-1
4:2:5
1:-1
4:2:5
1:-1
5:7:5
1:-1
3:7:5
0:0
2:5:5
0:0
2:10:5
0:-1
6:4:5
1:-1
5:6:5
1:-1
0:4:5
-1:0
0:3:4
-1:-1
2:2:3
0:-1
3:5:3
0:1
0:7:4
-1:0
3:4:3
0:-1
4:4:3
1:-1
3:7:3
0:-1
0:5:3
-1:-1
6:6:2
1:-1
0:4:2
-1:-1
4:4:1
1:1
3:6:2
0:-1
7:5:2
1:-1
4:4:2
1:-1
8:4:2
2:-1
4:5:2
1:-1
6:2:2
1:-1
1:5:2
-1:0
4:8:1
1:-1
4:9:1
1:-1
5:4:1
1:-1
2:5:1
0:-1
0:5:1
-1:-1
3:3:1
0:-1
1:2:1
-1:-1
0:7:1
-1:-1
0:5:1
-1:-1
0:4:1
-1:-1
0:7:1
-1:-1
0:3:1
-1:1
0:2:1
-1:-1
0:5:1
-1:-1
0:6:1
-1:-1
2:6:1
0:-1
0:8:1
-1:-1
3:7:1
0:-1
0:4:1
-1:1
3:5:1
0:-1
0:4:1
-1:-1
1:7:1
-1:-1
0:5:1
-1:-1
3:7:1
0:1
2:20:2
0:0
0:4:2
-1:0
0:7:1
-1:-1
0:6:1
-1:-1
0:2:1
-1:-1
3:3:1
0:-1
0:6:1
-1:-1
0:3:1
-1:-1
1:4:1
-1:1
0:5:1
-1:-1
2:2:1
0:-1
0:3:1
-1:-1
0:4:1
-1:-1
0:6:1
-1:-1
0:8:1
-1:-1
0:2:1
-1:-1
2:6:1
0:-1
0:4:1
-1:1
0:12:1
-1:-1
3:4:1
0:-1
3:15:1
0:-1
0:1:1
-1:-1
0:5:1
-1:-1
0:4:1
-1:-1
0:5:1
-1:-1
0:13:1
-1:-1
0:2:1
-1:-1
0:2:1
-1:-1
0:3:1
-1:-1
0:2:1
-1:-1
0:3:1
-1:-1
0:2:1
-1:-1
0:4:1
-1:-1
2:5:1
0:-1
3:3:1
0:-1
0:4:1
-1:1
1:1:1
-1:-1
0:6:1
-1:-1
0:4:1
-1:-1
2:6:1
0:-1
3:2:1
0:1
0:5:2
-1:0
0:6:1
-1:1
0:7:1
-1:-1
0:8:1
-1:-1
0:6:1
-1:-1
0:4:1
-1:-1
0:3:1
-1:-1
0:1:1
-1:-1
0:6:1
-1:-1
0:4:1
-1:-1
0:4:1
-1:-1
1:3:1
-1:-1
0:0:1
-1:-1
3:2:1
0:-1
0:4:1
-1:-1
0:8:1
-1:-1
1:9:1
-1:-1
0:3:1
-1:-1
0:2:1
-1:-1
0:5:1
-1:-1
0:6:1
-1:-1
0:2:1
-1:-1
0:6:1
-1:-1
0:4:1
-1:-1
0:4:1
-1:-1
0:10:1
-1:-1
0:3:1
-1:-1
1:6:1
-1:-1
0:4:1
-1:1
0:3:1
-1:-1
0:5:1
-1:1
1:3:1
-1:1
0:3:1
-1:-1
0:8:1
-1:-1
0:0:1
-1:-1
0:3:1
-1:-1
4:3:1
1:-1
0:5:1
-1:1
0:3:1
-1:-1
0:3:1
-1:-1
0:4:1
-1:-1
0:11:1
-1:-1
0:5:1
-1:1
2:11:1
0:-1
0:9:1
-1:1
0:5:1
-1:-1
0:1:1
-1:-1
0:9:1
-1:-1
0:4:1
-1:-1
0:1:1
-1:-1
0:3:1
-1:-1
1:5:1
-1:-1
0:1:1
-1:-1
0:6:1
-1:-1
3:4:1
0:-1
0:3:1
-1:-1
0:1:1
-1:-1
0:8:1
-1:-1
0:11:1
-1:-1
0:5:1
-1:-1
0:5:1
-1:-1
0:4:1
-1:-1
0:1:1
-1:-1
0:5:1
-1:-1
0:2:1
-1:-1
3:6:1
0:-1
0:3:1
-1:1
0:1:1
-1:-1
0:7:1
-1:-1
3:7:1
0:-1
1:3:1
-1:-1
1:5:1
-1:-1
4:3:1
1:-1
0:3:1
-1:-1
0:5:1
-1:-1
4:3:1
1:-1
0:6:1
-1:-1
0:8:1
-1:-1
0:7:1
-1:-1
0:11:1
-1:-1
2:8:1
0:-1
0:3:1
-1:1
0:4:1
-1:-1
0:4:1
-1:-1
0:4:1
-1:-1
0:4:1
-1:-1
0:5:1
-1:-1
0:4:1
-1:-1
0:9:1
-1:-1
0:8:1
-1:-1
0:4:1
-1:-1
0:2:1
-1:-1
3:4:1
0:-1
0:3:1
-1:1
0:6:1
-1:-1
0:4:1
-1:1
0:2:1
-1:-1
0:4:1
-1:-1
0:4:1
-1:-1
0:9:1
-1:1
1:4:1
-1:1
0:2:1
-1:-1
0:3:1
-1:-1
0:6:1
-1:-1
0:3:1
-1:-1
0:1:1
-1:-1
2:5:1
0:-1
0:6:1
-1:-1
0:6:1
-1:-1
0:5:1
-1:-1
0:2:1
-1:-1
0:2:1
-1:-1
0:4:1
-1:-1
0:7:1
-1:-1
0:4:1
-1:1
3:9:1
0:-1
0:9:1
-1:1
0:3:1
-1:-1
1:7:1
-1:-1
0:5:1
-1:-1
0:4:1
-1:-1
1:8:1
-1:-1
1:6:1
-1:-1
3:2:1
0:-1
0:2:1
-1:1
0:2:1
-1:-1
0:2:1
-1:-1
0:5:1
-1:-1
1:2:1
-1:-1
0:2:1
-1:-1
0:2:1
-1:-1
0:5:1
-1:-1
0:2:1
-1:-1
0:3:1
-1:-1
3:8:1
0:-1
3:7:1
0:1
3:5:2
0:-1
1:2:2
-1:-1
0:6:1
-1:-1
2:8:1
0:-1
1:2:1
-1:-1
0:6:1
-1:-1
0:6:1
-1:-1
0:5:1
-1:-1
0:7:1
-1:-1
0:5:1
-1:-1
3:3:1
0:-1
0:6:1
-1:-1
0:4:1
-1:-1
0:7:1
-1:1
0:3:1
-1:-1
0:3:1
-1:-1
3:5:1
0:-1
0:5:1
-1:-1
2:4:1
0:-1
0:6:1
-1:1
0:5:1
-1:-1
0:4:1
-1:1
1:2:1
-1:-1
0:1:1
-1:1
2:3:1
0:-1
0:5:1
-1:-1
0:5:1
-1:-1
0:2:1
-1:-1
3:3:1
0:-1
3:1:1
0:-1
0:6:1
-1:1
1:10:1
-1:-1
3:5:1
0:-1
0:5:1
-1:-1
0:5:1
-1:-1
3:3:1
0:-1
0:5:1
-1:1
0:6:1
-1:-1
0:4:1
-1:-1
0:7:1
-1:-1
0:14:1
-1:-1
0:3:1
-1:-1
0:3:1
-1:-1
0:2:1
-1:-1
0:3:1
-1:-1
0:2:1
-1:1
1:3:1
-1:-1
0:6:1
-1:-1
0:3:1
-1:1
0:3:1
-1:-1
0:3:1
-1:-1
0:4:1
-1:-1
0:7:1
-1:1
1:5:1
-1:1
0:2:1
-1:-1
3:2:1
0:-1
1:2:1
-1:-1
0:5:1
-1:-1
0:9:1
-1:-1
0:1:1
-1:-1
0:14:1
-1:-1
0:2:1
-1:1
0:1:1
-1:-1
0:2:1
-1:-1
0:6:1
-1:-1
2:4:1
0:-1
0:1:1
-1:-1
0:2:1
-1:-1
0:1:1
-1:-1
0:6:1
-1:1
0:6:1
-1:-1
1:5:1
-1:-1
2:4:1
0:-1
0:3:1
-1:-1
0:8:1
-1:-1
0:0:1
-1:-1
0:10:1
-1:-1
0:16:1
-1:-1
1:1:1
-1:-1
0:6:1
-1:-1
0:14:1
-1:-1
0:15:1
-1:-1
0:12:1
-1:-1
0:27:1
-1:-1
1:24:1
-1:-1
0:11:1
-1:1
0:13:1
-1:-1
0:10:1
-1:1
0:9:1
-1:-1
0:14:1
-1:-1
0:13:1
-1:-1
1:11:1
-1:1
0:14:1
-1:-1
2:21:1
0:-1
0:12:1
-1:-1
0:12:1
-1:1
0:18:1
-1:-1
0:19:1
-1:-1
0:10:1
-1:1
0:16:1
-1:-1
0:12:1
-1:-1
0:11:1
-1:-1
0:9:1
-1:-1
3:10:1
0:-1
0:11:1
-1:-1
0:13:1
-1:-1
1:10:1
-1:-1
2:8:1
0:-1
0:17:1
-1:-1
0:15:1
-1:-1
0:12:1
-1:-1
0:15:1
-1:-1
0:13:1
-1:-1
0:14:1
-1:-1
1:14:1
-1:-1
1:11:1
-1:-1
0:16:1
-1:1
0:18:1
-1:1
2:10:1
0:-1
1:12:1
-1:-1
0:10:1
-1:-1
0:12:1
-1:-1
0:13:1
-1:-1
0:11:1
-1:-1
1:17:1
-1:-1
0:19:1
-1:-1
1:10:1
-1:1
0:16:1
-1:-1
0:18:1
-1:1
1:7:1
-1:1
0:9:1
-1:-1
0:14:1
-1:1
0:14:1
-1:-1
0:19:1
-1:-1
0:22:1
-1:-1
2:8:1
0:-1
1:16:1
-1:-1
0:19:1
-1:-1
2:19:1
0:-1
0:15:1
-1:-1
0:16:1
-1:-1
0:14:1
-1:-1
0:9:1
-1:-1
0:12:1
-1:-1
2:11:1
0:-1
1:24:1
-1:1
0:15:1
-1:-1
0:15:1
-1:1
0:8:1
-1:-1
0:18:1
-1:-1
4:20:1
1:-1
1:15:1
-1:-1
1:24:1
-1:-1
4:15:1
1:1
0:15:2
-1:0
2:53:1
0:1
0:40:2
-1:0
0:10:1
-1:-1
0:11:1
-1:-1
0:6:1
-1:1
0:7:1
-1:-1
0:13:1
-1:1
0:9:1
-1:-1
0:15:1
-1:-1
2:22:1
0:-1
2:9:1
0:-1
0:16:1
-1:1
0:10:1
-1:1
0:17:1
-1:-1
0:20:1
-1:-1
0:16:1
-1:1
1:20:1
-1:-1
0:23:1
-1:-1
0:26:1
-1:1
2:22:1
0:1
0:16:2
-1:-1
2:22:1
0:-1
0:24:1
-1:-1
0:31:1
-1:1
0:23:1
-1:1
0:18:1
-1:1
0:31:1
-1:-1
1:19:1
-1:1
0:14:1
-1:-1
2:25:1
0:1
0:47:2
-1:-1
0:7:1
-1:-1
0:6:1
-1:1
1:4:1
-1:-1
0:7:1
-1:-1
0:7:1
-1:1
1:8:1
-1:-1
2:7:1
0:-1
0:9:1
-1:1
0:6:1
-1:-1
0:7:1
-1:-1
0:1:1
-1:-1
0:2:1
-1:-1
0:0:1
-1:-1
0:0:1
-1:-1
0:0:1
-1:-1
0:3:1
-1:-1
0:5:1
-1:-1
0:2:1
-1:-1
0:1:1
-1:-1
0:3:1
-1:1
0:1:1
-1:-1
0:1:1
-1:-1
0:1:1
-1:-1
0:2:1
-1:1
0:3:1
-1:-1
0:1:1
-1:-1
0:0:1
-1:-1
0:1:1
-1:-1
6:6:1
1:1
0:1:2
-1:-1
0:3:1
-1:1
0:2:1
-1:-1
0:0:1
-1:-1
0:1:1
-1:-1
0:2:1
-1:1
0:6:1
-1:-1
0:9:1
-1:1
2:2:1
0:-1
0:3:1
-1:-1
0:4:1
-1:-1
0:13:1
-1:-1
0:12:1
-1:1
0:5:1
-1:1
2:13:1
0:1
0:14:2
-1:-1
1:7:1
-1:-1
0:15:1
-1:-1
0:16:1
-1:1
2:11:1
0:-1
4:9:1
1:-1
0:4:1
-1:1
0:7:1
-1:-1
0:2:1
-1:-1
0:3:1
-1:-1
0:1:1
-1:-1
0:1:1
-1:1
0:1:1
-1:-1
0:4:1
-1:-1
0:0:1
-1:-1
0:2:1
-1:-1
0:3:1
-1:-1
0:4:1
-1:-1
1:3:1
-1:-1
0:4:1
-1:-1
0:2:1
-1:-1
0:2:1
-1:-1
0:3:1
-1:1
1:6:1
-1:1
0:1:1
-1:1
6:3:1
1:-1
0:3:1
-1:-1
0:3:1
-1:-1
0:4:1
-1:1
0:5:1
-1:-1
0:3:1
-1:-1
1:13:1
-1:-1
0:2:1
-1:-1
0:1:1
-1:-1
0:7:1
-1:-1
1:3:1
-1:-1
0:9:1
-1:-1
3:4:1
0:1
0:1:2
-1:-1
0:0:1
-1:-1
0:3:1
-1:-1
0:4:1
-1:-1
0:1:1
-1:-1
2:6:1
0:-1
0:4:1
-1:-1
2:3:1
0:1
0:2:2
-1:-1
0:4:1
-1:-1
0:12:1
-1:1
0:25:1
-1:-1
0:19:1
-1:1
2:19:1
0:1
0:20:2
-1:0
2:18:1
0:1
0:20:2
-1:-1
0:19:1
-1:1
0:26:1
-1:-1
0:27:1
-1:1
1:23:1
-1:1
0:33:1
-1:-1
0:23:1
-1:-1
0:23:1
-1:1
2:17:1
0:-1
0:26:1
-1:-1
0:21:1
-1:1
2:19:1
0:1
0:17:2
-1:-1
0:5:1
-1:-1
0:1:1
-1:-1
0:2:1
-1:-1
1:10:1
-1:1
0:2:1
-1:-1
0:0:1
-1:-1
0:1:1
-1:1
0:4:1
-1:-1
0:5:1
-1:-1
0:7:1
-1:-1
0:11:1
-1:1
0:4:1
-1:-1
0:5:1
-1:-1
2:4:1
0:-1
0:0:1
-1:-1
0:0:1
-1:-1
0:2:1
-1:1
0:4:1
-1:-1
0:3:1
-1:-1
0:2:1
-1:-1
0:4:1
-1:1
0:6:1
-1:-1
0:2:1
-1:1
0:3:1
-1:-1
0:1:1
-1:-1
0:0:1
-1:-1
0:0:1
-1:-1
0:2:1
-1:-1
0:2:1
-1:-1
0:2:1
-1:-1
2:1:1
0:1
0:1:2
-1:-1
0:2:1
-1:-1
0:1:1
-1:-1
0:2:1
-1:1
0:4:1
-1:-1
2:4:1
0:-1
0:5:1
-1:-1
0:2:1
-1:1
0:1:1
-1:-1
0:11:1
-1:-1
0:1:1
-1:-1
0:9:1
-1:-1
0:1:1
-1:1
0:6:1
-1:1
0:15:1
-1:-1
0:9:1
-1:-1
0:7:1
-1:-1
0:10:1
-1:1
2:16:1
0:1
0:8:2
-1:-1
0:11:1
-1:1
0:17:1
-1:1
0:16:1
-1:-1
0:16:1
-1:-1
1:7:1
-1:-1
2:7:1
0:-1
0:13:1
-1:-1
0:7:1
-1:1
0:2:1
-1:-1
2:9:1
0:1
0:6:2
-1:-1
0:3:1
-1:-1
0:3:1
-1:-1
1:2:1
-1:-1
0:1:1
-1:-1
0:7:1
-1:-1
0:3:1
-1:-1
0:3:1
-1:-1
0:4:1
-1:-1
0:5:1
-1:-1
0:3:1
-1:1
0:7:1
-1:-1
0:1:1
-1:-1
0:1:1
-1:-1
0:2:1
-1:-1
0:3:1
-1:1
0:7:1
-1:-1
0:13:1
-1:-1
0:4:1
-1:-1
2:3:1
0:-1
0:4:1
-1:1
0:5:1
-1:1
0:1:1
-1:-1
0:3:1
-1:1
0:1:1
-1:-1
4:14:1
1:1
1:24:2
-1:0
0:24:1
-1:-1
2:21:1
0:-1
0:26:1
-1:-1
2:31:1
0:1
1:27:2
-1:0
1:29:1
-1:-1
2:31:1
0:-1
0:25:1
-1:1
0:24:1
-1:1
0:23:1
-1:1
1:26:1
-1:1
0:23:1
-1:1
2:25:1
0:-1
0:23:1
-1:1
0:26:1
-1:1
0:24:1
-1:1
0:27:1
-1:-1
0:17:1
-1:1
0:23:1
-1:1
0:31:1
-1:-1
0:24:1
-1:1
0:26:1
-1:1
2:24:1
0:-1
0:17:1
-1:1
4:20:1
1:-1
0:22:1
-1:1
0:24:1
-1:1
0:30:1
-1:1
0:32:1
-1:1
1:18:1
-1:1
2:16:1
0:-1
0:28:1
-1:1
0:17:1
-1:1
0:29:1
-1:1
1:32:1
-1:1
1:25:1
-1:-1
1:21:1
-1:1
1:16:1
-1:-1
2:29:1
0:-1
0:19:1
-1:-1
1:28:1
-1:-1
0:24:1
-1:-1
0:24:1
-1:1
0:19:1
-1:-1
1:19:1
-1:-1
0:23:1
-1:-1
0:25:1
-1:1
0:11:1
-1:-1
0:17:1
-1:1
3:19:1
0:-1
0:6:1
-1:-1
2:7:1
0:1
0:6:2
-1:0
1:11:1
-1:1
0:6:1
-1:1
0:11:1
-1:1
0:13:1
-1:-1
0:13:1
-1:-1
1:22:1
-1:-1
0:16:1
-1:-1
0:19:1
-1:-1
0:27:1
-1:1
0:27:1
-1:1
0:20:1
-1:-1
0:15:1
-1:1
2:7:1
0:-1
6:2:1
1:-1
0:6:1
-1:-1
2:9:1
0:-1
0:9:1
-1:-1
0:5:1
-1:-1
0:10:1
-1:-1
0:5:1
-1:-1
0:5:1
-1:-1
5:2:1
1:-1
7:8:1
1:1
0:4:2
-1:0
0:1:1
-1:-1
0:1:1
-1:-1
0:1:1
-1:-1
0:1:1
-1:-1
1:8:1
-1:-1
0:0:1
-1:-1
0:8:1
-1:-1
0:12:1
-1:-1
0:7:1
-1:-1
0:4:1
-1:1
0:17:1
-1:1
1:11:1
-1:-1
0:13:1
-1:-1
1:8:1
-1:-1
0:6:1
-1:-1
0:4:1
-1:-1
2:10:1
0:-1
0:8:1
-1:1
0:11:1
-1:-1
0:11:1
-1:-1
0:2:1
-1:-1
1:1:1
-1:-1
0:5:1
-1:-1
0:2:1
-1:1
0:3:1
-1:1
0:9:1
-1:-1
0:7:1
-1:1
0:3:1
-1:-1
0:6:1
-1:-1
0:4:1
-1:-1
0:5:1
-1:1
0:6:1
-1:-1
0:1:1
-1:-1
0:1:1
-1:-1
2:4:1
0:1
0:2:2
-1:-1
0:1:1
-1:-1
0:2:1
-1:-1
0:0:1
-1:-1
0:5:1
-1:-1
0:1:1
-1:-1
0:5:1
-1:-1
0:11:1
-1:-1
0:4:1
-1:1
0:0:1
-1:-1
0:3:1
-1:-1
0:4:1
-1:-1
0:10:1
-1:1
0:17:1
-1:-1
0:9:1
-1:1
0:9:1
-1:-1
0:7:1
-1:-1
0:12:1
-1:-1
2:16:1
0:1
0:7:2
-1:-1
3:9:1
0:-1
1:14:1
-1:1
0:9:1
-1:-1
0:8:1
-1:1
0:5:1
-1:-1
0:9:1
-1:-1
1:7:1
-1:-1
0:2:1
-1:-1
1:8:1
-1:-1
0:2:1
-1:-1
0:6:1
-1:-1
0:3:1
-1:-1
0:13:1
-1:-1
0:3:1
-1:-1
0:2:1
-1:1
0:3:1
-1:1
0:4:1
-1:-1
0:1:1
-1:-1
0:2:1
-1:1
0:3:1
-1:1
0:1:1
-1:-1
0:5:1
-1:-1
0:8:1
-1:1
0:5:1
-1:-1
0:6:1
-1:-1
0:7:1
-1:-1
0:1:1
-1:1
2:1:1
0:-1
0:3:1
-1:-1
2:30:1
0:-1
2:19:1
0:1
0:25:2
-1:-1
0:25:1
-1:1
0:22:1
-1:1
0:29:1
-1:1
0:30:1
-1:1
2:25:1
0:1
0:24:2
-1:-1
1:24:1
-1:1
0:23:1
-1:1
1:14:1
-1:1
0:28:1
-1:-1
0:25:1
-1:1
0:20:1
-1:1
0:23:1
-1:-1
0:19:1
-1:-1
0:21:1
-1:-1
0:23:1
-1:1
0:28:1
-1:1
0:18:1
-1:-1
0:23:1
-1:1
1:20:1
-1:-1
0:22:1
-1:-1
1:18:1
-1:1
0:23:1
-1:1
0:18:1
-1:1
0:14:1
-1:-1
0:21:1
-1:-1
0:25:1
-1:1
0:21:1
-1:1
0:20:1
-1:1
0:20:1
-1:1
2:17:1
0:1
0:21:2
-1:-1
2:11:1
0:-1
2:18:1
0:-1
0:12:1
-1:1
0:7:1
-1:1
0:9:1
-1:-1
0:9:1
-1:-1
0:5:1
-1:-1
0:3:1
-1:-1
2:6:1
0:-1
0:11:1
-1:1
0:5:1
-1:-1
0:14:1
-1:1
1:8:1
-1:-1
0:8:1
-1:-1
2:10:1
0:-1
1:9:1
-1:-1
0:10:1
-1:1
2:10:1
0:1
2:11:2
0:-1
4:18:2
1:-1
0:7:2
-1:-1
0:9:1
-1:1
0:3:1
-1:-1
1:1:1
-1:-1
0:4:1
-1:-1
0:4:1
-1:-1
0:5:1
-1:-1
1:1:1
-1:-1
0:3:1
-1:-1
0:3:1
-1:-1
0:3:1
-1:-1
0:3:1
-1:-1
2:2:1
0:1
0:2:2
-1:0
4:3:1
1:-1
0:10:1
-1:-1
0:9:1
-1:-1
0:8:1
-1:-1
0:4:1
-1:1
0:0:1
-1:-1
1:8:1
-1:1
0:4:1
-1:-1
1:5:1
-1:-1
0:0:1
-1:-1
0:4:1
-1:-1
0:5:1
-1:-1
0:5:1
-1:-1
0:1:1
-1:-1
0:0:1
-1:-1
0:1:1
-1:-1
0:5:1
-1:-1
1:1:1
-1:-1
0:5:1
-1:-1
2:2:1
0:-1
0:5:1
-1:-1
0:7:1
-1:1
2:11:1
0:-1
0:18:1
-1:-1
0:1:1
-1:-1
0:2:1
-1:-1
0:7:1
-1:1
0:1:1
-1:-1
2:2:1
0:1
0:19:2
-1:0
0:7:1
-1:1
0:12:1
-1:1
1:11:1
-1:1
0:17:1
-1:-1
0:12:1
-1:1
0:14:1
-1:1
0:6:1
-1:1
0:7:1
-1:1
0:6:1
-1:1
0:3:1
-1:-1
0:7:1
-1:1
0:2:1
-1:-1
0:11:1
-1:-1
0:11:1
-1:1
1:10:1
-1:-1
0:9:1
-1:1
0:4:1
-1:-1
0:5:1
-1:-1
0:0:1
-1:-1
0:5:1
-1:-1
3:6:1
0:1
0:9:2
-1:0
0:1:1
-1:-1
0:3:1
-1:-1
0:5:1
-1:-1
0:1:1
-1:-1
0:9:1
-1:-1
8:39:1
2:1
2:21:3
0:-1
0:22:3
-1:-1
0:21:2
-1:-1
0:28:1
-1:1
0:31:1
-1:1
1:22:1
-1:1
0:23:1
-1:-1
0:33:1
-1:-1
0:25:1
-1:1
2:17:1
0:1
0:21:2
-1:0
1:25:1
-1:1
0:27:1
-1:-1
0:20:1
-1:1
0:27:1
-1:-1
0:17:1
-1:1
0:8:1
-1:-1
0:4:1
-1:-1
0:4:1
-1:-1
0:3:1
-1:1
0:6:1
-1:-1
1:4:1
-1:-1
2:9:1
0:-1
0:4:1
-1:1
0:8:1
-1:1
2:9:1
0:1
0:8:2
-1:-1
0:5:1
-1:1
0:5:1
-1:-1
0:5:1
-1:-1
1:1:1
-1:-1
0:6:1
-1:-1
0:8:1
-1:-1
0:4:1
-1:-1
0:1:1
-1:-1
0:1:1
-1:-1
0:7:1
-1:-1
1:1:1
-1:-1
2:5:1
0:-1
0:3:1
-1:-1
0:5:1
-1:-1
0:17:1
-1:1
0:6:1
-1:1
0:9:1
-1:-1
1:12:1
-1:1
0:7:1
-1:-1
0:3:1
-1:-1
0:7:1
-1:-1
0:15:1
-1:-1
0:11:1
-1:-1
0:12:1
-1:1
0:19:1
-1:-1
1:12:1
-1:1
1:14:1
-1:-1
1:13:1
-1:-1
1:2:1
-1:-1
0:4:1
-1:-1
0:4:1
-1:1
0:9:1
-1:1
0:2:1
-1:1
0:3:1
-1:-1
0:6:1
-1:1
0:1:1
-1:-1
0:10:1
-1:-1
0:2:1
-1:1
0:5:1
-1:1
0:3:1
-1:1
0:4:1
-1:-1
0:1:1
-1:-1
0:2:1
-1:1
0:4:1
-1:-1
0:2:1
-1:-1
0:4:1
-1:-1
0:4:1
-1:-1
0:1:1
-1:-1
0:6:1
-1:-1
0:5:1
-1:1
0:3:1
-1:-1
0:2:1
-1:-1
0:2:1
-1:-1
0:1:1
-1:-1
0:3:1
-1:1
0:2:1
-1:1
0:1:1
-1:-1
0:3:1
-1:-1
0:3:1
-1:-1
0:5:1
-1:-1
0:11:1
-1:-1
0:6:1
-1:-1
0:3:1
-1:-1
0:10:1
-1:-1
2:5:1
0:1
0:4:2
-1:-1
0:3:1
-1:-1
0:8:1
-1:-1
0:12:1
-1:-1
0:8:1
-1:-1
0:9:1
-1:-1
0:3:1
-1:-1
0:5:1
-1:-1
0:7:1
-1:-1
0:2:1
-1:1
0:0:1
-1:-1
0:1:1
-1:-1
0:0:1
-1:-1
2:31:1
0:-1
2:60:1
0:1
0:28:2
-1:0
1:0:1
-1:-1
4:4:1
1:-1
0:0:1
-1:-1
0:4:1
-1:-1
0:4:1
-1:-1
0:4:1
-1:-1
0:3:1
-1:1
0:2:1
-1:-1
0:3:1
-1:-1
0:1:1
-1:-1
0:0:1
-1:-1
0:1:1
-1:-1
0:1:1
-1:-1
0:0:1
-1:-1
2:3:1
0:-1
0:0:1
-1:-1
0:4:1
-1:-1
0:3:1
-1:1
0:1:1
-1:-1
0:2:1
-1:-1
0:1:1
-1:-1
0:0:1
-1:-1
3:1:1
0:-1
0:0:1
-1:-1
0:3:1
-1:-1
0:4:1
-1:-1
2:0:1
0:-1
2:3:1
0:-1
3:13:1
0:-1
2:0:1
0:-1
0:1:1
-1:-1
3:0:1
0:-1
0:1:1
-1:-1
0:1:1
-1:-1
0:1:1
-1:-1
0:1:1
-1:-1
0:5:1
-1:-1
0:3:1
-1:1
0:3:1
-1:-1
0:6:1
-1:-1
0:0:1
-1:-1
0:2:1
-1:-1
0:2:1
-1:-1
0:0:1
-1:-1
0:0:1
-1:-1
0:0:1
-1:-1
0:0:1
-1:-1
0:0:1
-1:-1
0:0:1
-1:-1
0:0:1
-1:-1
0:1:1
-1:-1
4:0:1
1:-1
0:0:1
-1:-1
0:0:1
-1:-1
3:0:1
0:-1
0:1:1
-1:-1
0:2:1
-1:-1
0:0:1
-1:-1
0:1:1
-1:-1
2:7:1
0:-1
0:2:1
-1:-1
3:1:1
0:-1
0:46:1
-1:-1
2:79:1
0:1
2:76:2
0:-1
2:69:2
0:-1
0:66:2
-1:-1
0:65:1
-1:-1
0:84:1
-1:1
0:82:1
-1:1
0:77:1
-1:1
3:79:1
0:1
0:80:2
-1:0
0:81:1
-1:1
2:87:1
0:1
0:85:2
-1:-1
2:84:1
0:1
0:67:2
-1:-1
0:87:1
-1:1
0:59:1
-1:1
0:32:1
-1:-1
0:1:1
-1:-1
0:4:1
-1:-1
0:5:1
-1:-1
1:3:1
-1:-1
1:3:1
-1:-1
2:2:1
0:-1
0:3:1
-1:-1
2:4:1
0:-1
0:2:1
-1:-1
0:2:1
-1:-1
1:5:1
-1:-1
0:3:1
-1:-1
0:3:1
-1:-1
0:2:1
-1:-1
1:6:1
-1:-1
0:8:1
-1:-1
0:5:1
-1:-1
0:2:1
-1:-1
0:2:1
-1:-1
0:5:1
-1:-1
3:8:1
0:-1
0:4:1
-1:-1
0:4:1
-1:-1
0:1:1
-1:-1
0:1:1
-1:-1
0:3:1
-1:-1
0:5:1
-1:1
0:5:1
-1:-1
0:2:1
-1:-1
0:4:1
-1:-1
0:3:1
-1:-1
0:1:1
-1:-1
0:3:1
-1:-1
1:1:1
-1:-1
0:4:1
-1:-1
0:0:1
-1:-1
1:2:1
-1:-1
0:0:1
-1:-1
0:2:1
-1:-1
0:3:1
-1:-1
1:4:1
-1:-1
0:2:1
-1:-1
0:8:1
-1:-1
0:3:1
-1:-1
0:2:1
-1:-1
0:5:1
-1:-1
0:2:1
-1:-1
0:3:1
-1:-1
0:3:1
-1:-1
3:6:1
0:-1
0:1:1
-1:-1
0:2:1
-1:-1
0:4:1
-1:-1
0:7:1
-1:-1
0:2:1
-1:-1
0:2:1
-1:-1
3:5:1
0:-1
0:3:1
-1:-1
0:4:1
-1:-1
0:4:1
-1:-1
0:1:1
-1:-1
2:3:1
0:-1
1:9:1
-1:-1
0:2:1
-1:1
0:3:1
-1:-1
3:3:1
0:-1
0:7:1
-1:-1
0:9:1
-1:-1
0:10:1
-1:-1
0:4:1
-1:-1
3:4:1
0:-1
0:8:1
-1:-1
0:7:1
-1:-1
0:4:1
-1:-1
0:4:1
-1:-1
0:7:1
-1:-1
2:5:1
0:-1
2:7:1
0:-1
0:14:1
-1:-1
1:5:1
-1:-1
0:2:1
-1:-1
0:2:1
-1:-1
0:15:1
-1:-1
0:2:1
-1:-1
0:8:1
-1:-1
0:5:1
-1:1
0:3:1
-1:-1
0:4:1
-1:-1
0:3:1
-1:-1
0:12:1
-1:-1
0:7:1
-1:-1
0:5:1
-1:-1
0:1:1
-1:-1
0:13:1
-1:-1
0:4:1
-1:1
0:8:1
-1:-1
1:2:1
-1:-1
1:2:1
-1:1
0:7:1
-1:-1
0:10:1
-1:1
0:7:1
-1:-1
0:3:1
-1:-1
2:2:1
0:-1
0:6:1
-1:-1
1:6:1
-1:-1
0:4:1
-1:-1
0:3:1
-1:-1
1:5:1
-1:-1
0:3:1
-1:-1
0:2:1
-1:-1
0:5:1
-1:-1
0:6:1
-1:1
0:6:1
-1:1
0:6:1
-1:-1
0:10:1
-1:-1
0:3:1
-1:-1
1:8:1
-1:-1
0:4:1
-1:-1
0:1:1
-1:-1
0:9:1
-1:-1
6:12:1
1:1
0:3:2
-1:-1
0:7:1
-1:-1
0:4:1
-1:-1
1:11:1
-1:-1
0:3:1
-1:-1
0:3:1
-1:-1
3:3:1
0:-1
4:7:1
1:1
0:6:2
-1:-1
0:11:1
-1:-1
0:10:1
-1:1
0:7:1
-1:1
0:5:1
-1:-1
2:1:1
0:-1
1:13:1
-1:1
1:6:1
-1:-1
0:5:1
-1:-1
0:7:1
-1:-1
0:7:1
-1:-1
0:5:1
-1:-1
0:12:1
-1:-1
1:7:1
-1:-1
0:2:1
-1:-1
1:10:1
-1:1
0:7:1
-1:-1
0:8:1
-1:1
0:10:1
-1:-1
0:2:1
-1:-1
0:4:1
-1:-1
0:6:1
-1:-1
0:5:1
-1:1
0:2:1
-1:1
0:6:1
-1:1
0:14:1
-1:-1
0:4:1
-1:-1
0:10:1
-1:-1
1:5:1
-1:-1
1:5:1
-1:-1
0:4:1
-1:-1
0:9:1
-1:-1
3:3:1
0:-1
1:7:1
-1:1
0:15:1
-1:-1
0:3:1
-1:-1
0:6:1
-1:-1
0:3:1
-1:-1
0:5:1
-1:-1
0:9:1
-1:-1
1:7:1
-1:-1
0:7:1
-1:-1
0:1:1
-1:1
0:7:1
-1:-1
0:4:1
-1:-1
0:15:1
-1:-1
0:6:1
-1:1
3:3:1
0:-1
0:11:1
-1:-1
0:11:1
-1:-1
0:3:1
-1:-1
0:10:1
-1:-1
0:11:1
-1:-1
0:15:1
-1:-1
1:2:1
-1:-1
0:3:1
-1:-1
4:7:1
1:-1
0:3:1
-1:-1
0:11:1
-1:1
0:8:1
-1:1
0:6:1
-1:-1
0:8:1
-1:-1
0:4:1
-1:-1
3:2:1
0:-1
0:6:1
-1:-1
0:9:1
-1:1
1:3:1
-1:-1
0:8:1
-1:-1
0:7:1
-1:-1
0:3:1
-1:-1
0:12:1
-1:-1
3:6:1
0:-1
0:4:1
-1:-1
0:6:1
-1:1
0:6:1
-1:-1
0:4:1
-1:-1
8:8:1
2:-1
1:4:1
-1:1
0:13:1
-1:-1
0:5:1
-1:-1
0:14:1
-1:-1
0:7:1
-1:-1
0:5:1
-1:1
0:9:1
-1:-1
0:11:1
-1:1
0:17:1
-1:-1
0:2:1
-1:-1
0:6:1
-1:-1
0:6:1
-1:-1
0:10:1
-1:-1
2:5:1
0:-1
0:10:1
-1:-1
0:3:1
-1:-1
0:11:1
-1:1
1:3:1
-1:-1
0:4:1
-1:-1
0:3:1
-1:-1
0:6:1
-1:-1
0:4:1
-1:-1
2:8:1
0:-1
0:4:1
-1:-1
0:2:1
-1:-1
0:4:1
-1:-1
1:6:1
-1:-1
0:7:1
-1:-1
0:4:1
-1:-1
0:6:1
-1:-1
2:2:1
0:-1
0:4:1
-1:-1
0:4:1
-1:-1
1:4:1
-1:1
0:3:1
-1:1
0:3:1
-1:-1
0:10:1
-1:-1
0:9:1
-1:-1
0:11:1
-1:-1
2:2:1
0:-1
3:3:1
0:1
0:1:2
-1:-1
0:2:1
-1:-1
0:2:1
-1:-1
2:2:1
0:-1
0:3:1
-1:-1
3:2:1
0:-1
2:0:1
0:-1
6:3:1
1:-1
0:2:1
-1:1
0:0:1
-1:-1
0:2:1
-1:-1
2:1:1
0:-1
0:2:1
-1:-1
0:1:1
-1:-1
0:3:1
-1:-1
2:3:1
0:-1
1:2:1
-1:-1
1:1:1
-1:-1
2:2:1
0:-1
0:1:1
-1:-1
2:2:1
0:-1
3:3:1
0:-1
0:2:1
-1:1
1:2:1
-1:-1
0:2:1
-1:-1
0:3:1
-1:-1
2:0:1
0:-1
0:1:1
-1:-1
4:1:1
1:-1
0:4:1
-1:-1
0:3:1
-1:-1
1:2:1
-1:-1
3:2:1
0:-1
3:2:1
0:1
0:2:2
-1:0
3:3:1
0:-1
3:3:1
0:1
0:1:2
-1:0
5:3:1
1:-1
6:3:1
1:1
4:7:2
1:1
6:3:3
1:-1
0:4:3
-1:-1
2:5:2
0:-1
4:5:2
1:-1
4:2:2
1:-1
6:4:2
1:-1
6:5:2
1:-1
0:4:2
-1:0
0:2:1
-1:-1
3:3:1
0:-1
4:3:1
1:-1
0:5:1
-1:-1
0:6:1
-1:-1
5:2:1
1:-1
0:6:1
-1:-1
0:11:1
-1:-1
0:3:1
-1:-1
0:1:1
-1:-1
0:3:1
-1:-1
6:6:1
1:-1
0:5:1
-1:-1
2:2:1
0:-1
3:2:1
0:-1
1:9:1
-1:1
2:5:1
0:-1
0:5:1
-1:-1
0:3:1
-1:-1
0:5:1
-1:-1
2:2:1
0:-1
2:3:1
0:1
7:4:2
1:0
0:5:3
-1:0
5:4:2
1:-1
2:6:2
0:0
3:9:2
0:1
5:8:3
1:0
3:1:4
0:-1
0:6:4
-1:-1
0:2:3
-1:-1
0:6:2
-1:0
0:8:1
-1:-1
0:3:1
-1:-1
3:4:1
0:-1
0:4:1
-1:-1
0:8:1
-1:-1
3:3:1
0:-1
8:4:1
2:-1
3:10:1
0:-1
4:5:1
1:-1
3:7:1
0:-1
0:3:1
-1:-1
0:3:1
-1:-1
2:4:1
0:-1
2:4:1
0:-1
0:4:1
-1:-1
3:4:1
0:-1
2:4:1
0:-1
0:3:1
-1:-1
1:6:1
-1:-1
4:3:1
1:-1
2:2:1
0:-1
6:7:1
1:-1
1:9:1
-1:1
1:3:1
-1:-1
3:4:1
0:1
0:5:2
-1:-1
3:5:1
0:-1
3:5:1
0:1
4:3:2
1:0
5:10:3
1:-1
7:7:3
1:0
0:5:4
-1:0
1:6:3
-1:0
2:5:2
0:0
0:3:2
-1:0
0:3:1
-1:-1
0:5:1
-1:1
0:6:1
-1:-1
0:4:1
-1:-1
0:2:1
-1:-1
0:5:1
-1:-1
2:4:1
0:-1
1:4:1
-1:-1
0:5:1
-1:-1
0:7:1
-1:-1
0:5:1
-1:-1
0:9:1
-1:-1
3:4:1
0:-1
0:1:1
-1:-1
3:5:1
0:-1
0:4:1
-1:1
0:6:1
-1:-1
2:12:1
0:1
2:16:2
0:-1
0:5:2
-1:0
0:3:1
-1:-1
0:3:1
-1:-1
0:1:1
-1:-1
0:4:1
-1:-1
0:6:1
-1:-1
0:3:1
-1:-1
0:4:1
-1:-1
0:5:1
-1:-1
0:5:1
-1:-1
0:2:1
-1:1
0:4:1
-1:-1
1:13:1
-1:-1
0:2:1
-1:-1
0:7:1
-1:-1
0:5:1
-1:-1
0:8:1
-1:1
0:6:1
-1:1
0:10:1
-1:-1
3:5:1
0:1
3:4:2
0:1
0:5:3
-1:1
3:5:3
0:-1
0:4:3
-1:0
0:8:2
-1:0
0:8:1
-1:-1
0:3:1
-1:1
3:2:1
0:-1
1:5:1
-1:1
1:2:1
-1:-1
0:2:1
-1:-1
2:3:1
0:-1
0:2:1
-1:-1
0:5:1
-1:-1
0:7:1
-1:-1
0:2:1
-1:-1
0:4:1
-1:-1
1:4:1
-1:-1
0:2:1
-1:-1
2:9:1
0:-1
3:7:1
0:-1
0:0:1
-1:-1
3:3:1
0:-1
1:12:1
-1:-1
0:5:1
-1:-1
0:5:1
-1:-1
0:1:1
-1:-1
1:4:1
-1:-1
0:5:1
-1:-1
2:5:1
0:-1
0:5:1
-1:-1
3:3:1
0:-1
0:6:1
-1:-1
0:1:1
-1:-1
1:2:1
-1:-1
0:3:1
-1:-1
0:3:1
-1:-1
0:3:1
-1:1
0:8:1
-1:-1
0:4:1
-1:-1
5:5:1
1:1
1:2:2
-1:1
0:2:2
-1:-1
3:6:1
0:-1
0:2:1
-1:1
0:2:1
-1:-1
1:4:1
-1:-1
0:5:1
-1:-1
0:6:1
-1:-1
0:5:1
-1:-1
1:1:1
-1:-1
3:4:1
0:-1
0:3:1
-1:1
0:2:1
-1:-1
3:3:1
0:-1
2:6:1
0:1
3:2:2
0:1
1:3:3
-1:0
0:4:2
-1:1
4:3:2
1:-1
3:8:2
0:1
0:4:3
-1:0
3:5:2
0:-1
0:4:2
-1:0
1:6:1
-1:-1
0:4:1
-1:-1
0:7:1
-1:1
2:8:1
0:1
4:3:2
1:-1
3:5:2
0:-1
0:1:2
-1:-1
0:8:1
-1:-1
0:4:1
-1:-1
0:2:1
-1:-1
0:3:1
-1:-1
0:5:1
-1:-1
0:6:1
-1:1
0:6:1
-1:-1
3:2:1
0:-1
0:3:1
-1:-1
0:6:1
-1:-1
0:2:1
-1:-1
0:11:1
-1:-1
0:8:1
-1:1
0:3:1
-1:-1
1:3:1
-1:-1
0:3:1
-1:-1
0:3:1
-1:-1
0:5:1
-1:-1
0:4:1
-1:-1
0:3:1
-1:-1
0:4:1
-1:1
0:7:1
-1:1
0:4:1
-1:-1
0:8:1
-1:1
0:8:1
-1:-1
0:2:1
-1:1
0:5:1
-1:-1
0:6:1
-1:-1
3:6:1
0:1
2:7:2
0:0
0:6:2
-1:0
0:6:1
-1:-1
2:12:1
0:-1
2:8:1
0:-1
0:10:1
-1:-1
0:4:1
-1:-1
1:2:1
-1:-1
1:5:1
-1:-1
0:1:1
-1:-1
0:4:1
-1:-1
0:7:1
-1:-1
0:6:1
-1:-1
0:4:1
-1:1
0:3:1
-1:-1
0:3:1
-1:-1
0:2:1
-1:-1
0:4:1
-1:-1
0:5:1
-1:-1
0:5:1
-1:-1
2:2:1
0:-1
0:3:1
-1:-1
0:7:1
-1:-1
1:5:1
-1:-1
0:4:1
-1:-1
0:5:1
-1:-1
0:2:1
-1:-1
0:4:1
-1:1
0:3:1
-1:-1
1:4:1
-1:-1
0:4:1
-1:-1
4:4:1
1:-1
0:6:1
-1:1
2:3:1
0:-1
0:4:1
-1:-1
0:1:1
-1:-1
2:2:1
0:-1
0:3:1
-1:-1
0:5:1
-1:-1
0:8:1
-1:-1
0:3:1
-1:-1
2:7:1
0:-1
0:8:1
-1:1
0:3:1
-1:-1
0:5:1
-1:-1
1:5:1
-1:-1
3:5:1
0:-1
0:3:1
-1:-1
0:9:1
-1:-1
2:7:1
0:-1
0:4:1
-1:-1
1:2:1
-1:-1
0:1:1
-1:-1
0:3:1
-1:-1
0:2:1
-1:-1
3:2:1
0:-1
3:5:1
0:1
2:2:2
0:0
2:2:2
0:-1
0:2:2
-1:-1
1:6:1
-1:-1
0:5:1
-1:-1
1:9:1
-1:-1
1:6:1
-1:-1
1:6:1
-1:-1
2:1:1
0:-1
0:7:1
-1:-1
0:10:1
-1:-1
0:5:1
-1:1
0:3:1
-1:-1
0:5:1
-1:-1
0:3:1
-1:-1
0:11:1
-1:-1
0:4:1
-1:-1
0:4:1
-1:1
0:3:1
-1:-1
0:5:1
-1:-1
0:9:1
-1:-1
2:8:1
0:-1
0:1:1
-1:-1
0:4:1
-1:-1
0:5:1
-1:-1
0:3:1
-1:-1
2:6:1
0:-1
0:7:1
-1:1
2:3:1
0:-1
2:2:1
0:-1
3:7:1
0:-1
0:5:1
-1:-1
2:2:1
0:-1
0:5:1
-1:-1
0:6:1
-1:-1
0:2:1
-1:-1
0:1:1
-1:-1
2:11:1
0:-1
0:4:1
-1:-1
0:3:1
-1:-1
0:3:1
-1:-1
0:4:1
-1:-1
0:4:1
-1:-1
0:6:1
-1:-1
1:10:1
-1:-1
0:3:1
-1:-1
0:16:1
-1:-1
0:2:1
-1:1
0:2:1
-1:-1
0:3:1
-1:-1
0:2:1
-1:-1
0:3:1
-1:-1
0:3:1
-1:-1
0:3:1
-1:-1
0:4:1
-1:1
3:5:1
0:1
0:5:2
-1:-1
0:2:1
-1:-1
0:5:1
-1:-1
2:5:1
0:-1
0:4:1
-1:1
1:5:1
-1:-1
0:0:1
-1:-1
0:2:1
-1:-1
0:3:1
-1:-1
1:8:1
-1:-1
2:5:1
0:-1
0:7:1
-1:1
0:10:1
-1:-1
0:1:1
-1:-1
0:3:1
-1:1
0:4:1
-1:1
1:5:1
-1:-1
0:3:1
-1:-1
0:1:1
-1:-1
0:3:1
-1:1
0:1:1
-1:-1
1:6:1
-1:-1
0:5:1
-1:-1
0:0:1
-1:-1
0:3:1
-1:-1
0:11:1
-1:-1
1:5:1
-1:-1
0:19:1
-1:1
0:16:1
-1:1
1:2:1
-1:-1
2:6:1
0:-1
1:11:1
-1:-1
0:7:1
-1:-1
0:16:1
-1:-1
0:13:1
-1:1
0:10:1
-1:-1
0:12:1
-1:-1
0:11:1
-1:-1
0:14:1
-1:-1
0:15:1
-1:-1
0:15:1
-1:-1
0:7:1
-1:-1
0:17:1
-1:1
2:14:1
0:1
0:9:2
-1:-1
0:12:1
-1:-1
0:11:1
-1:-1
0:10:1
-1:-1
0:10:1
-1:-1
0:13:1
-1:-1
0:12:1
-1:-1
0:14:1
-1:1
1:13:1
-1:1
0:8:1
-1:-1
0:13:1
-1:-1
0:13:1
-1:-1
0:11:1
-1:-1
0:14:1
-1:-1
1:14:1
-1:-1
0:18:1
-1:-1
0:17:1
-1:-1
0:13:1
-1:-1
0:8:1
-1:-1
0:11:1
-1:-1
0:20:1
-1:1
0:11:1
-1:-1
0:11:1
-1:1
1:15:1
-1:-1
0:10:1
-1:-1
2:11:1
0:-1
0:10:1
-1:1
1:12:1
-1:-1
1:12:1
-1:-1
0:20:1
-1:1
1:9:1
-1:-1
1:7:1
-1:-1
0:17:1
-1:-1
0:9:1
-1:-1
2:17:1
0:1
0:15:2
-1:-1
0:10:1
-1:1
0:10:1
-1:1
0:11:1
-1:1
0:15:1
-1:1
0:4:1
-1:-1
0:14:1
-1:-1
0:22:1
-1:-1
2:16:1
0:-1
0:9:1
-1:-1
0:19:1
-1:-1
0:11:1
-1:-1
0:19:1
-1:1
0:17:1
-1:1
0:17:1
-1:1
0:8:1
-1:-1
0:19:1
-1:-1
0:21:1
-1:1
0:10:1
-1:-1
0:15:1
-1:1
0:14:1
-1:1
1:14:1
-1:-1
2:15:1
0:-1
1:16:1
-1:-1
0:13:1
-1:1
0:13:1
-1:1
0:11:1
-1:1
0:11:1
-1:-1
0:18:1
-1:-1
2:15:1
0:-1
0:21:1
-1:-1
0:12:1
-1:1
1:16:1
-1:-1
0:19:1
-1:-1
2:21:1
0:1
0:13:2
-1:0
0:12:1
-1:1
0:21:1
-1:1
2:66:1
0:1
0:29:2
-1:0
0:11:1
-1:1
2:17:1
0:1
0:22:2
-1:0
0:12:1
-1:-1
0:15:1
-1:-1
1:17:1
-1:1
0:18:1
-1:1
0:11:1
-1:1
0:27:1
-1:-1
2:23:1
0:-1
1:22:1
-1:1
0:41:1
-1:1
0:40:1
-1:-1
0:16:1
-1:-1
0:43:1
-1:1
0:23:1
-1:1
0:30:1
-1:-1
1:21:1
-1:-1
0:31:1
-1:-1
0:18:1
-1:-1
0:24:1
-1:-1
0:31:1
-1:-1
1:26:1
-1:1
1:28:1
-1:-1
0:37:1
-1:1
0:16:1
-1:-1
0:32:1
-1:-1
0:17:1
-1:1
0:23:1
-1:1
0:27:1
-1:1
1:68:1
-1:1
0:16:1
-1:1
0:5:1
-1:-1
0:4:1
-1:-1
0:6:1
-1:-1
0:14:1
-1:1
0:7:1
-1:-1
0:13:1
-1:1
1:9:1
-1:1
0:13:1
-1:1
2:12:1
0:1
0:8:2
-1:-1
0:14:1
-1:-1
0:19:1
-1:1
0:12:1
-1:-1
1:24:1
-1:1
3:17:1
0:-1
0:16:1
-1:1
0:27:1
-1:1
0:15:1
-1:1
0:23:1
-1:-1
0:13:1
-1:-1
0:16:1
-1:1
0:7:1
-1:1
1:28:1
-1:1
0:17:1
-1:-1
5:9:1
1:-1
0:5:1
-1:-1
0:3:1
-1:1
2:7:1
0:-1
0:3:1
-1:-1
5:3:1
1:-1
0:1:1
-1:-1
5:1:1
1:-1
1:6:1
-1:-1
1:2:1
-1:-1
0:2:1
-1:-1
0:1:1
-1:-1
2:1:1
0:-1
0:1:1
-1:-1
0:1:1
-1:-1
0:1:1
-1:-1
0:2:1
-1:-1
2:5:1
0:-1
0:1:1
-1:-1
0:2:1
-1:-1
0:1:1
-1:-1
4:0:1
1:-1
1:1:1
-1:-1
0:1:1
-1:-1
0:2:1
-1:-1
0:4:1
-1:1
0:1:1
-1:-1
0:2:1
-1:-1
0:9:1
-1:1
0:1:1
-1:1
0:0:1
-1:-1
0:1:1
-1:-1
0:5:1
-1:-1
0:4:1
-1:1
0:3:1
-1:-1
0:0:1
-1:-1
0:4:1
-1:1
0:1:1
-1:-1
0:1:1
-1:-1
0:3:1
-1:-1
0:1:1
-1:-1
0:3:1
-1:1
0:3:1
-1:-1
0:3:1
-1:1
0:4:1
-1:-1
0:2:1
-1:-1
0:28:1
-1:-1
0:17:1
-1:-1
0:18:1
-1:-1
0:30:1
-1:1
0:21:1
-1:1
0:25:1
-1:1
0:17:1
-1:1
2:17:1
0:-1
0:22:1
-1:1
2:18:1
0:1
0:20:2
-1:-1
2:25:1
0:-1
2:17:1
0:-1
1:21:1
-1:-1
0:26:1
-1:-1
1:21:1
-1:1
2:25:1
0:-1
1:20:1
-1:-1
0:17:1
-1:-1
0:2:1
-1:-1
2:6:1
0:-1
0:3:1
-1:-1
0:4:1
-1:-1
0:2:1
-1:1
0:2:1
-1:-1
0:4:1
-1:1
2:5:1
0:-1
0:2:1
-1:1
0:2:1
-1:1
0:5:1
-1:1
0:14:1
-1:1
0:8:1
-1:1
0:1:1
-1:-1
0:3:1
-1:-1
0:6:1
-1:1
0:2:1
-1:-1
0:1:1
-1:-1
0:3:1
-1:-1
0:16:1
-1:-1
0:3:1
-1:-1
0:5:1
-1:-1
0:5:1
-1:1
0:1:1
-1:-1
0:2:1
-1:-1
0:6:1
-1:1
0:5:1
-1:1
0:2:1
-1:-1
0:4:1
-1:-1
0:5:1
-1:1
0:3:1
-1:-1
0:5:1
-1:-1
0:5:1
-1:1
0:4:1
-1:-1
0:8:1
-1:-1
1:4:1
-1:-1
0:8:1
-1:-1
2:14:1
0:1
0:11:2
-1:-1
0:13:1
-1:1
0:8:1
-1:1
0:15:1
-1:1
0:14:1
-1:-1
0:16:1
-1:1
0:14:1
-1:1
0:8:1
-1:1
3:3:1
0:1
0:2:2
-1:-1
0:3:1
-1:1
0:4:1
-1:-1
0:7:1
-1:-1
3:5:1
0:-1
0:5:1
-1:-1
0:0:1
-1:-1
0:5:1
-1:-1
0:7:1
-1:-1
0:0:1
-1:-1
0:1:1
-1:-1
0:4:1
-1:-1
0:5:1
-1:-1
0:1:1
-1:-1
0:4:1
-1:1
0:3:1
-1:-1
0:1:1
-1:1
0:2:1
-1:-1
0:10:1
-1:-1
0:1:1
-1:-1
0:10:1
-1:-1
2:13:1
0:-1
0:6:1
-1:-1
0:8:1
-1:-1
2:8:1
0:-1
0:3:1
-1:-1
0:2:1
-1:1
0:1:1
-1:-1
0:7:1
-1:-1
0:2:1
-1:-1
0:2:1
-1:-1
0:8:1
-1:1
2:5:1
0:1
0:6:2
-1:-1
0:4:1
-1:-1
0:5:1
-1:-1
0:4:1
-1:1
0:7:1
-1:-1
0:1:1
-1:-1
0:7:1
-1:-1
0:1:1
-1:-1
0:1:1
-1:-1
0:6:1
-1:-1
0:15:1
-1:-1
2:21:1
0:1
0:19:2
-1:-1
3:15:1
0:1
0:18:2
-1:-1
0:21:1
-1:-1
0:26:1
-1:1
0:15:1
-1:1
0:28:1
-1:1
0:19:1
-1:1
0:14:1
-1:1
2:31:1
0:1
0:32:2
-1:-1
0:18:1
-1:1
1:11:1
-1:-1
0:16:1
-1:-1
0:15:1
-1:-1
0:14:1
-1:-1
0:7:1
-1:1
0:9:1
-1:1
0:3:1
-1:-1
3:4:1
0:-1
0:1:1
-1:-1
0:1:1
-1:-1
0:1:1
-1:-1
1:7:1
-1:-1
0:5:1
-1:1
0:3:1
-1:1
1:10:1
-1:-1
0:10:1
-1:-1
2:5:1
0:-1
0:3:1
-1:-1
0:10:1
-1:-1
2:10:1
0:-1
0:16:1
-1:-1
0:15:1
-1:-1
0:7:1
-1:1
0:2:1
-1:1
0:4:1
-1:-1
1:3:1
-1:-1
0:2:1
-1:-1
0:1:1
-1:-1
0:1:1
-1:-1
0:3:1
-1:-1
0:2:1
-1:1
0:4:1
-1:1
0:2:1
-1:1
0:3:1
-1:-1
0:5:1
-1:-1
0:3:1
-1:1
0:5:1
-1:1
0:6:1
-1:1
2:31:1
0:-1
0:18:1
-1:1
0:25:1
-1:1
2:20:1
0:1
0:30:2
-1:-1
0:29:1
-1:1
2:38:1
0:1
0:35:2
-1:-1
0:26:1
-1:-1
2:40:1
0:1
0:37:2
-1:-1
0:40:1
-1:1
1:37:1
-1:1
1:20:1
-1:-1
2:43:1
0:1
0:26:2
-1:-1
0:35:1
-1:1
0:37:1
-1:1
0:26:1
-1:-1
2:24:1
0:-1
0:19:1
-1:-1
1:20:1
-1:1
0:25:1
-1:1
0:31:1
-1:-1
0:22:1
-1:-1
0:23:1
-1:1
3:22:1
0:-1
0:34:1
-1:-1
0:21:1
-1:1
0:30:1
-1:-1
1:28:1
-1:-1
0:28:1
-1:-1
0:28:1
-1:1
0:23:1
-1:-1
0:24:1
-1:1
2:28:1
0:-1
0:19:1
-1:1
0:24:1
-1:-1
0:28:1
-1:-1
0:15:1
-1:1
0:10:1
-1:-1
0:4:1
-1:-1
2:12:1
0:1
0:14:2
-1:-1
0:11:1
-1:1
0:3:1
-1:-1
1:13:1
-1:1
0:9:1
-1:-1
1:9:1
-1:-1
0:10:1
-1:-1
0:9:1
-1:1
2:8:1
0:1
0:12:2
-1:-1
0:7:1
-1:-1
0:17:1
-1:1
0:19:1
-1:1
0:12:1
-1:1
0:14:1
-1:-1
0:14:1
-1:1
1:17:1
-1:1
0:20:1
-1:-1
1:18:1
-1:1
0:19:1
-1:-1
2:18:1
0:-1
0:18:1
-1:-1
0:15:1
-1:1
0:24:1
-1:-1
1:13:1
-1:-1
0:18:1
-1:-1
1:19:1
-1:1
0:9:1
-1:1
0:9:1
-1:-1
1:9:1
-1:1
0:13:1
-1:-1
2:4:1
0:1
0:3:2
-1:-1
0:7:1
-1:1
0:7:1
-1:1
0:5:1
-1:1
0:6:1
-1:-1
0:4:1
-1:-1
2:1:1
0:-1
0:5:1
-1:-1
1:12:1
-1:-1
4:6:1
1:1
0:4:2
-1:1
0:9:2
-1:0
0:5:1
-1:1
0:5:1
-1:-1
0:5:1
-1:1
0:5:1
-1:-1
0:2:1
-1:1
0:12:1
-1:-1
0:1:1
-1:-1
0:3:1
-1:-1
0:2:1
-1:-1
0:2:1
-1:-1
0:1:1
-1:-1
0:5:1
-1:-1
0:5:1
-1:-1
0:5:1
-1:1
0:4:1
-1:-1
0:1:1
-1:-1
0:1:1
-1:-1
0:2:1
-1:1
0:11:1
-1:1
0:5:1
-1:-1
0:2:1
-1:-1
0:2:1
-1:1
0:9:1
-1:-1
0:4:1
-1:-1
0:7:1
-1:-1
2:10:1
0:1
0:3:2
-1:-1
0:3:1
-1:-1
0:11:1
-1:-1
0:3:1
-1:-1
0:7:1
-1:-1
0:11:1
-1:1
0:12:1
-1:1
0:3:1
-1:1
0:6:1
-1:1
0:1:1
-1:1
0:0:1
-1:-1
0:9:1
-1:-1
0:4:1
-1:-1
0:6:1
-1:-1
0:2:1
-1:1
2:2:1
0:-1
0:1:1
-1:-1
0:0:1
-1:-1
0:9:1
-1:-1
1:2:1
-1:-1
0:2:1
-1:-1
0:3:1
-1:1
6:1:1
1:-1
0:4:1
-1:-1
0:7:1
-1:-1
0:1:1
-1:-1
0:2:1
-1:-1
0:10:1
-1:-1
0:6:1
-1:-1
2:1:1
0:-1
0:2:1
-1:1
1:13:1
-1:-1
0:31:1
-1:1
0:13:1
-1:-1
0:16:1
-1:-1
2:21:1
0:-1
2:23:1
0:1
0:19:2
-1:-1
0:22:1
-1:1
0:17:1
-1:1
0:20:1
-1:1
0:16:1
-1:1
0:21:1
-1:1
0:22:1
-1:-1
0:23:1
-1:-1
0:18:1
-1:-1
2:26:1
0:1
0:20:2
-1:-1
0:20:1
-1:1
0:22:1
-1:1
0:19:1
-1:1
2:18:1
0:1
2:26:2
0:-1
0:25:2
-1:-1
0:22:1
-1:-1
0:24:1
-1:-1
0:21:1
-1:1
0:24:1
-1:1
0:2:1
-1:1
0:6:1
-1:-1
0:5:1
-1:1
0:5:1
-1:1
0:3:1
-1:-1
0:3:1
-1:-1
0:5:1
-1:-1
0:1:1
-1:-1
0:3:1
-1:1
0:3:1
-1:-1
0:2:1
-1:1
0:3:1
-1:-1
0:2:1
-1:1
0:1:1
-1:-1
0:5:1
-1:-1
2:2:1
0:-1
0:9:1
-1:-1
0:7:1
-1:1
0:3:1
-1:-1
2:7:1
0:1
0:6:2
-1:-1
0:5:1
-1:-1
0:5:1
-1:-1
0:1:1
-1:-1
0:2:1
-1:-1
0:2:1
-1:-1
0:5:1
-1:-1
0:7:1
-1:1
0:14:1
-1:-1
0:12:1
-1:-1
1:3:1
-1:-1
0:2:1
-1:1
1:12:1
-1:-1
0:3:1
-1:-1
0:13:1
-1:-1
0:11:1
-1:1
2:9:1
0:1
1:17:2
-1:-1
1:11:1
-1:-1
0:13:1
-1:-1
0:13:1
-1:1
0:15:1
-1:-1
0:11:1
-1:-1
3:17:1
0:1
0:22:2
-1:-1
0:17:1
-1:1
0:23:1
-1:1
0:19:1
-1:1
0:19:1
-1:-1
0:8:1
-1:-1
2:6:1
0:-1
0:5:1
-1:-1
0:3:1
-1:-1
1:3:1
-1:-1
0:6:1
-1:-1
2:12:1
0:1
0:13:2
-1:0
0:21:1
-1:-1
4:26:1
1:-1
0:8:1
-1:-1
0:3:1
-1:1
0:1:1
-1:-1
0:2:1
-1:1
0:0:1
-1:-1
0:3:1
-1:-1
0:5:1
-1:-1
1:3:1
-1:1
0:4:1
-1:-1
0:6:1
-1:-1
0:6:1
-1:-1
2:4:1
0:-1
0:1:1
-1:-1
0:7:1
-1:-1
0:4:1
-1:-1
0:3:1
-1:-1
0:1:1
-1:-1
0:8:1
-1:-1
0:6:1
-1:1
0:9:1
-1:1
0:10:1
-1:-1
0:9:1
-1:-1
0:18:1
-1:-1
0:9:1
-1:1
0:17:1
-1:-1
0:6:1
-1:1
0:6:1
-1:-1
0:1:1
-1:-1
0:5:1
-1:-1
0:1:1
-1:1
0:7:1
-1:-1
0:2:1
-1:1
0:3:1
-1:-1
0:3:1
-1:-1
0:3:1
-1:1
0:5:1
-1:-1
0:4:1
-1:-1
0:3:1
-1:1
0:8:1
-1:-1
0:4:1
-1:-1
0:2:1
-1:-1
0:1:1
-1:-1
0:3:1
-1:1
0:6:1
-1:-1
0:3:1
-1:-1
0:2:1
-1:-1
0:9:1
-1:-1
3:18:1
0:1
0:23:2
-1:0
1:21:1
-1:-1
1:24:1
-1:1
1:21:1
-1:-1
0:26:1
-1:-1
2:47:1
0:1
0:16:2
-1:-1
0:35:1
-1:1
2:24:1
0:1
2:31:2
0:-1
0:29:2
-1:-1
0:13:1
-1:1
0:3:1
-1:-1
0:2:1
-1:-1
0:8:1
-1:-1
0:6:1
-1:-1
0:12:1
-1:1
3:9:1
0:1
0:7:2
-1:0
0:1:1
-1:-1
0:2:1
-1:1
0:2:1
-1:-1
2:2:1
0:-1
0:4:1
-1:-1
2:2:1
0:1
0:7:2
-1:0
0:5:1
-1:-1
0:4:1
-1:-1
0:1:1
-1:1
2:7:1
0:-1
0:1:1
-1:-1
0:1:1
-1:-1
0:6:1
-1:-1
0:5:1
-1:-1
1:5:1
-1:-1
0:1:1
-1:-1
2:3:1
0:-1
0:2:1
-1:1
0:5:1
-1:-1
0:1:1
-1:-1
0:3:1
-1:-1
0:2:1
-1:-1
0:2:1
-1:-1
0:6:1
-1:-1
0:3:1
-1:-1
0:6:1
-1:-1
0:8:1
-1:-1
0:2:1
-1:1
2:11:1
0:-1
0:1:1
-1:-1
0:6:1
-1:-1
0:0:1
-1:-1
2:15:1
0:1
2:9:2
0:-1
0:7:2
-1:-1
0:10:1
-1:-1
0:5:1
-1:-1
0:1:1
-1:-1
0:11:1
-1:-1
0:7:1
-1:-1
2:19:1
0:-1
3:10:1
0:1
0:12:2
-1:-1
0:11:1
-1:1
0:11:1
-1:1
0:8:1
-1:1
0:22:1
-1:1
0:13:1
-1:-1
0:1:1
-1:-1
0:3:1
-1:-1
1:17:1
-1:-1
2:54:1
0:-1
0:42:1
-1:-1
2:1:1
0:-1
0:4:1
-1:-1
0:10:1
-1:-1
0:0:1
-1:-1
0:3:1
-1:-1
0:5:1
-1:1
2:1:1
0:-1
0:3:1
-1:-1
0:0:1
-1:-1
0:0:1
-1:-1
0:0:1
-1:-1
0:0:1
-1:-1
0:3:1
-1:-1
0:1:1
-1:-1
0:3:1
-1:-1
0:2:1
-1:-1
0:0:1
-1:-1
0:5:1
-1:-1
0:4:1
-1:-1
0:3:1
-1:-1
0:0:1
-1:-1
0:6:1
-1:-1
1:13:1
-1:1
0:28:1
-1:-1
0:25:1
-1:-1
3:57:1
0:1
0:66:2
-1:-1
0:66:1
-1:1
0:41:1
-1:1
0:3:1
-1:-1
3:3:1
0:-1
0:1:1
-1:-1
0:1:1
-1:-1
0:2:1
-1:-1
0:5:1
-1:-1
0:3:1
-1:-1
0:3:1
-1:-1
0:1:1
-1:-1
0:2:1
-1:-1
2:2:1
0:-1
0:4:1
-1:-1
0:5:1
-1:-1
0:5:1
-1:-1
0:9:1
-1:-1
0:8:1
-1:-1
0:4:1
-1:-1
0:5:1
-1:-1
0:4:1
-1:-1
0:2:1
-1:-1
0:3:1
-1:-1
0:4:1
-1:-1
0:4:1
-1:-1
1:1:1
-1:-1
0:3:1
-1:-1
0:3:1
-1:-1
1:4:1
-1:-1
0:3:1
-1:-1
0:7:1
-1:-1
0:3:1
-1:-1
0:6:1
-1:-1
0:3:1
-1:-1
0:2:1
-1:-1
0:3:1
-1:-1
3:2:1
0:-1
0:1:1
-1:-1
0:4:1
-1:-1
2:0:1
0:-1
0:1:1
-1:-1
0:5:1
-1:-1
0:4:1
-1:-1
0:7:1
-1:-1
0:8:1
-1:-1
1:3:1
-1:-1
0:4:1
-1:-1
0:0:1
-1:-1
0:4:1
-1:-1
1:5:1
-1:-1
0:4:1
-1:-1
0:3:1
-1:-1
1:3:1
-1:1
3:4:1
0:-1
3:2:1
0:-1
1:3:1
-1:-1
0:4:1
-1:-1
0:2:1
-1:-1
0:2:1
-1:-1
0:6:1
-1:-1
3:1:1
0:-1
1:4:1
-1:-1
3:7:1
0:-1
0:3:1
-1:-1
0:5:1
-1:-1
0:3:1
-1:-1
0:16:1
-1:-1
0:4:1
-1:-1
0:3:1
-1:-1
0:4:1
-1:-1
0:2:1
-1:-1
0:5:1
-1:-1
0:4:1
-1:-1
0:3:1
-1:-1
0:8:1
-1:-1
0:4:1
-1:-1
0:11:1
-1:-1
0:3:1
-1:-1
0:1:1
-1:-1
0:2:1
-1:-1
0:11:1
-1:-1
0:5:1
-1:-1
0:4:1
-1:-1
0:14:1
-1:-1
3:3:1
0:-1
0:5:1
-1:-1
0:3:1
-1:1
0:10:1
-1:-1
0:5:1
-1:-1
0:3:1
-1:-1
0:8:1
-1:-1
5:10:1
1:1
0:3:2
-1:1
1:4:2
-1:-1
0:3:1
-1:1
0:6:1
-1:-1
0:9:1
-1:-1
0:8:1
-1:-1
0:6:1
-1:-1
0:3:1
-1:-1
0:1:1
-1:-1
0:4:1
-1:-1
0:2:1
-1:-1
0:1:1
-1:-1
0:2:1
-1:-1
2:3:1
0:-1
0:6:1
-1:-1
0:4:1
-1:-1
0:1:1
-1:-1
0:2:1
-1:-1
0:4:1
-1:-1
1:10:1
-1:1
1:11:1
-1:-1
0:6:1
-1:-1
4:6:1
1:-1
0:8:1
-1:-1
2:4:1
0:-1
0:9:1
-1:-1
0:12:1
-1:-1
0:3:1
-1:-1
0:7:1
-1:-1
3:3:1
0:-1
0:7:1
-1:-1
0:3:1
-1:-1
0:11:1
-1:-1
0:7:1
-1:-1
1:14:1
-1:1
2:3:1
0:-1
0:8:1
-1:-1
0:5:1
-1:-1
0:3:1
-1:-1
0:8:1
-1:-1
4:6:1
1:-1
0:8:1
-1:-1
0:5:1
-1:-1
0:3:1
-1:-1
3:3:1
0:-1
0:7:1
-1:-1
0:7:1
-1:-1
0:5:1
-1:-1
0:2:1
-1:-1
0:6:1
-1:-1
0:9:1
-1:-1
1:8:1
-1:1
0:5:1
-1:-1
0:2:1
-1:-1
0:8:1
-1:-1
0:3:1
-1:-1
0:3:1
-1:-1
0:16:1
-1:-1
0:5:1
-1:-1
0:6:1
-1:-1
2:9:1
0:-1
0:8:1
-1:1
0:4:1
-1:-1
0:13:1
-1:-1
0:6:1
-1:-1
0:8:1
-1:-1
0:9:1
-1:1
0:7:1
-1:1
0:4:1
-1:-1
0:4:1
-1:-1
1:9:1
-1:-1
0:5:1
-1:-1
0:8:1
-1:-1
0:3:1
-1:-1
0:9:1
-1:-1
0:6:1
-1:1
1:10:1
-1:-1
0:7:1
-1:-1
0:7:1
-1:-1
1:5:1
-1:-1
1:13:1
-1:-1
0:11:1
-1:-1
0:3:1
-1:-1
0:7:1
-1:-1
0:11:1
-1:-1
0:5:1
-1:-1
0:0:1
-1:-1
0:2:1
-1:-1
0:5:1
-1:-1
0:13:1
-1:-1
3:5:1
0:1
0:10:2
-1:1
0:13:2
-1:-1
0:1:1
-1:-1
0:7:1
-1:-1
0:4:1
-1:-1
4:3:1
1:-1
0:7:1
-1:-1
0:3:1
-1:-1
0:3:1
-1:-1
0:6:1
-1:-1
3:14:1
0:-1
0:2:1
-1:-1
0:7:1
-1:-1
2:9:1
0:-1
0:5:1
-1:-1
0:7:1
-1:-1
1:6:1
-1:-1
0:5:1
-1:-1
0:1:1
-1:-1
0:4:1
-1:-1
1:6:1
-1:-1
1:10:1
-1:-1
0:11:1
-1:-1
0:8:1
-1:-1
0:4:1
-1:-1
0:4:1
-1:-1
0:13:1
-1:-1
0:11:1
-1:-1
0:15:1
-1:-1
0:3:1
-1:-1
0:10:1
-1:1
0:7:1
-1:-1
0:8:1
-1:-1
0:6:1
-1:-1
9:7:1
2:-1
0:12:1
-1:1
0:5:1
-1:-1
3:4:1
0:-1
1:6:1
-1:-1
0:2:1
-1:-1
0:7:1
-1:-1
0:8:1
-1:-1
0:6:1
-1:1
0:6:1
-1:1
0:3:1
-1:-1
1:5:1
-1:-1
0:10:1
-1:-1
2:7:1
0:-1
1:12:1
-1:-1
0:7:1
-1:-1
0:4:1
-1:-1
0:5:1
-1:1
1:3:1
-1:-1
1:6:1
-1:-1
0:18:1
-1:-1
0:3:1
-1:1
0:2:1
-1:-1
0:3:1
-1:-1
0:1:1
-1:-1
0:3:1
-1:-1
3:2:1
0:-1
0:2:1
-1:-1
0:2:1
-1:-1
0:2:1
-1:-1
2:4:1
0:-1
0:3:1
-1:-1
0:3:1
-1:-1
3:4:1
0:-1
0:3:1
-1:-1
3:2:1
0:-1
2:1:1
0:-1
2:2:1
0:-1
2:1:1
0:-1
0:1:1
-1:-1
3:3:1
0:-1
0:1:1
-1:-1
2:1:1
0:-1
2:1:1
0:-1
3:4:1
0:-1
0:4:1
-1:-1
0:2:1
-1:-1
0:2:1
-1:-1
3:2:1
0:-1
4:2:1
1:-1
0:5:1
-1:-1
0:5:1
-1:-1
2:2:1
0:-1
2:2:1
0:-1
0:2:1
-1:-1
0:4:1
-1:-1
3:3:1
0:-1
6:2:1
1:-1
0:3:1
-1:-1
2:3:1
0:-1
0:4:1
-1:-1
0:3:1
-1:-1
1:4:1
-1:-1
3:4:1
0:1
2:6:2
0:-1
0:7:2
-1:-1
0:3:1
-1:-1
0:4:1
-1:1
2:5:1
0:-1
7:3:1
1:-1
6:2:1
1:-1
2:4:1
0:-1
0:7:1
-1:-1
4:5:1
1:1
1:5:2
-1:0
4:7:1
1:-1
2:4:1
0:-1
4:4:1
1:-1
1:7:1
-1:-1
0:5:1
-1:-1
0:4:1
-1:-1
6:6:1
1:-1
2:4:1
0:-1
3:3:1
0:-1
2:3:1
0:-1
0:4:1
-1:-1
5:2:1
1:-1
0:3:1
-1:-1
5:6:1
1:-1
2:6:1
0:1
5:4:2
1:1
1:10:3
-1:-1
3:5:2
0:-1
5:4:2
1:0
5:6:3
1:0
6:6:4
1:0
0:11:5
-1:0
3:3:4
0:-1
0:5:4
-1:1
5:6:4
1:-1
3:4:4
0:-1
6:5:4
1:-1
1:5:4
-1:0
5:7:3
1:-1
8:6:3
2:0
0:0:4
-1:-1
0:13:3
-1:-1
3:6:2
0:1
2:3:3
0:0
1:7:3
-1:0
0:3:2
-1:-1
0:5:1
-1:-1
6:5:1
1:1
0:3:2
-1:0
1:4:1
-1:-1
4:2:1
1:-1
0:3:1
-1:-1
2:1:1
0:-1
0:7:1
-1:1
4:4:1
1:-1
8:2:1
2:-1
2:5:1
0:-1
4:8:1
1:-1
1:5:1
-1:-1
0:1:1
-1:-1
0:7:1
-1:-1
4:3:1
1:-1
4:5:1
1:-1
0:4:1
-1:-1
4:11:1
1:-1
5:7:1
1:-1
5:4:1
1:-1
4:7:1
1:-1
1:7:1
-1:-1
1:2:1
-1:-1
0:4:1
-1:-1
0:3:1
-1:1
0:6:1
-1:-1
0:7:1
-1:-1
0:3:1
-1:1
1:5:1
-1:-1
0:5:1
-1:-1
2:5:1
0:-1
0:5:1
-1:-1
0:5:1
-1:-1
0:3:1
-1:-1
0:8:1
-1:-1
1:2:1
-1:-1
0:2:1
-1:-1
0:4:1
-1:1
3:5:1
0:1
0:5:2
-1:-1
0:7:1
-1:-1
3:15:1
0:-1
0:11:1
-1:-1
0:6:1
-1:-1
0:2:1
-1:-1
0:3:1
-1:-1
0:3:1
-1:1
0:2:1
-1:-1
0:3:1
-1:-1
0:2:1
-1:-1
2:6:1
0:-1
0:2:1
-1:-1
0:5:1
-1:-1
0:2:1
-1:-1
0:1:1
-1:-1
0:13:1
-1:-1
0:5:1
-1:1
0:1:1
-1:-1
3:5:1
0:-1
4:5:1
1:-1
3:10:1
0:-1
0:4:1
-1:-1
0:13:1
-1:-1
0:5:1
-1:-1
1:4:1
-1:-1
0:3:1
-1:-1
0:2:1
-1:-1
0:13:1
-1:-1
0:5:1
-1:1
0:2:1
-1:-1
3:2:1
0:-1
2:2:1
0:-1
3:4:1
0:-1
2:2:1
0:1
1:5:2
-1:-1
2:1:1
0:-1
1:4:1
-1:-1
0:4:1
-1:-1
0:3:1
-1:-1
0:1:1
-1:-1
0:5:1
-1:-1
0:4:1
-1:-1
3:8:1
0:-1
0:4:1
-1:-1
0:3:1
-1:-1
0:1:1
-1:-1
0:3:1
-1:-1
0:9:1
-1:-1
0:7:1
-1:1
0:3:1
-1:-1
0:3:1
-1:-1
1:2:1
-1:-1
0:5:1
-1:-1
1:3:1
-1:-1
0:5:1
-1:-1
0:6:1
-1:-1
0:4:1
-1:-1
0:5:1
-1:-1
0:4:1
-1:-1
0:3:1
-1:-1
2:5:1
0:-1
0:6:1
-1:-1
0:6:1
-1:1
3:3:1
0:-1
0:2:1
-1:1
0:6:1
-1:-1
3:2:1
0:-1
3:3:1
0:1
0:4:2
-1:-1
0:1:1
-1:-1
0:6:1
-1:-1
0:8:1
-1:-1
0:2:1
-1:-1
0:2:1
-1:-1
0:4:1
-1:-1
0:4:1
-1:-1
2:5:1
0:-1
0:3:1
-1:-1
0:3:1
-1:-1
1:5:1
-1:1
0:4:1
-1:-1
2:2:1
0:-1
3:2:1
0:1
3:7:2
0:0
0:4:2
-1:-1
2:2:1
0:-1
0:6:1
-1:-1
2:7:1
0:-1
0:8:1
-1:-1
0:8:1
-1:-1
1:6:1
-1:-1
4:2:1
1:-1
0:11:1
-1:1
0:2:1
-1:-1
0:2:1
-1:-1
0:4:1
-1:-1
0:1:1
-1:-1
0:1:1
-1:-1
3:2:1
0:-1
0:4:1
-1:-1
2:4:1
0:-1
0:2:1
-1:-1
3:4:1
0:-1
3:2:1
0:1
0:7:2
-1:0
0:10:1
-1:-1
0:8:1
-1:-1
3:3:1
0:-1
0:4:1
-1:-1
0:3:1
-1:-1
0:6:1
-1:-1
0:5:1
-1:-1
2:3:1
0:-1
0:3:1
-1:-1
2:6:1
0:-1
0:4:1
-1:-1
0:7:1
-1:-1
0:4:1
-1:-1
0:5:1
-1:-1
3:3:1
0:1
0:1:2
-1:-1
1:7:1
-1:-1
0:9:1
-1:-1
2:10:1
0:-1
1:7:1
-1:-1
1:6:1
-1:1
2:7:1
0:-1
0:9:1
-1:-1
2:9:1
0:1
3:2:2
0:0
0:2:2
-1:1
0:5:2
-1:-1
2:3:1
0:-1
0:6:1
-1:1
0:7:1
-1:-1
0:5:1
-1:-1
0:6:1
-1:-1
0:5:1
-1:-1
0:3:1
-1:-1
1:4:1
-1:-1
0:3:1
-1:-1
0:6:1
-1:1
0:2:1
-1:-1
3:3:1
0:-1
4:3:1
1:-1
0:7:1
-1:-1
0:7:1
-1:-1
0:6:1
-1:-1
1:2:1
-1:-1
3:2:1
0:-1
5:6:1
1:-1
1:3:1
-1:1
0:4:1
-1:-1
0:4:1
-1:-1
0:6:1
-1:-1
2:7:1
0:-1
3:3:1
0:1
0:2:2
-1:-1
0:3:1
-1:-1
2:9:1
0:-1
3:4:1
0:-1
0:8:1
-1:-1
0:7:1
-1:-1
0:11:1
-1:1
0:4:1
-1:-1
0:7:1
-1:-1
0:2:1
-1:-1
0:5:1
-1:-1
0:5:1
-1:-1
0:6:1
-1:-1
1:4:1
-1:-1
0:2:1
-1:-1
0:3:1
-1:-1
2:3:1
0:-1
0:2:1
-1:1
0:6:1
-1:-1
0:2:1
-1:-1
3:2:1
0:-1
0:3:1
-1:-1
1:3:1
-1:-1
0:1:1
-1:-1
0:3:1
-1:-1
0:3:1
-1:-1
2:4:1
0:1
0:8:2
-1:1
2:4:2
0:-1
0:3:2
-1:-1
0:5:1
-1:1
0:6:1
-1:1
0:4:1
-1:-1
0:5:1
-1:-1
2:1:1
0:-1
0:7:1
-1:-1
0:8:1
-1:-1
0:4:1
-1:1
3:5:1
0:-1
0:2:1
-1:-1
1:7:1
-1:-1
0:6:1
-1:-1
0:5:1
-1:-1
3:3:1
0:-1
2:2:1
0:1
1:3:2
-1:0
0:3:1
-1:-1
0:4:1
-1:-1
1:4:1
-1:-1
1:6:1
-1:-1
0:1:1
-1:-1
0:1:1
-1:-1
0:8:1
-1:-1
0:1:1
-1:-1
0:3:1
-1:-1
0:1:1
-1:-1
2:4:1
0:-1
0:2:1
-1:-1
3:3:1
0:-1
0:8:1
-1:-1
3:4:1
0:-1
0:3:1
-1:1
3:4:1
0:-1
0:2:1
-1:1
0:10:1
-1:-1
0:10:1
-1:1
0:13:1
-1:-1
0:4:1
-1:-1
0:3:1
-1:-1
0:1:1
-1:-1
0:2:1
-1:-1
0:2:1
-1:-1
0:4:1
-1:-1
0:5:1
-1:-1
0:4:1
-1:1
0:2:1
-1:-1
0:4:1
-1:1
2:5:1
0:-1
0:3:1
-1:-1
0:6:1
-1:-1
2:4:1
0:-1
0:3:1
-1:-1
0:3:1
-1:-1
0:7:1
-1:-1
0:4:1
-1:-1
0:9:1
-1:-1
0:7:1
-1:-1
0:2:1
-1:-1
0:3:1
-1:1
0:4:1
-1:1
0:6:1
-1:-1
3:3:1
0:-1
0:1:1
-1:-1
0:4:1
-1:-1
0:3:1
-1:-1
0:3:1
-1:-1
2:7:1
0:-1
0:3:1
-1:-1
4:1:1
1:-1
0:8:1
-1:-1
0:17:1
-1:1
2:14:1
0:-1
0:6:1
-1:-1
0:2:1
-1:-1
2:6:1
0:-1
0:11:1
-1:-1
0:16:1
-1:-1
2:25:1
0:-1
4:18:1
1:-1
0:20:1
-1:-1
0:14:1
-1:-1
0:12:1
-1:-1
0:16:1
-1:-1
0:23:1
-1:-1
1:25:1
-1:-1
2:19:1
0:-1
2:23:1
0:-1
2:10:1
0:-1
2:27:1
0:-1
0:22:1
-1:1
2:18:1
0:-1
0:15:1
-1:-1
0:13:1
-1:1
0:18:1
-1:-1
0:15:1
-1:-1
0:25:1
-1:-1
0:24:1
-1:-1
0:18:1
-1:-1
0:28:1
-1:-1
0:23:1
-1:-1
0:14:1
-1:1
0:16:1
-1:-1
0:9:1
-1:1
2:19:1
0:1
0:14:2
-1:-1
0:23:1
-1:1
2:18:1
0:-1
0:19:1
-1:-1
0:13:1
-1:1
0:16:1
-1:-1
0:14:1
-1:-1
0:18:1
-1:-1
0:28:1
-1:-1
0:17:1
-1:-1
0:24:1
-1:1
0:26:1
-1:1
0:14:1
-1:1
1:10:1
-1:-1
0:14:1
-1:-1
0:26:1
-1:1
0:20:1
-1:-1
0:20:1
-1:1
0:28:1
-1:-1
1:19:1
-1:1
1:21:1
-1:-1
0:17:1
-1:-1
0:22:1
-1:-1
0:17:1
-1:-1
0:28:1
-1:-1
0:18:1
-1:-1
1:28:1
-1:-1
0:16:1
-1:-1
4:23:1
1:-1
7:15:1
1:1
0:75:2
-1:-1
0:30:1
-1:-1
0:24:1
-1:1
2:25:1
0:1
0:25:2
-1:-1
0:20:1
-1:1
2:12:1
0:1
0:29:2
-1:-1
0:54:1
-1:1
0:23:1
-1:1
0:30:1
-1:1
0:29:1
-1:1
0:20:1
-1:1
0:10:1
-1:1
0:6:1
-1:-1
0:4:1
-1:1
0:3:1
-1:-1
0:0:1
-1:-1
0:2:1
-1:-1
2:4:1
0:1
0:1:2
-1:-1
0:2:1
-1:-1
0:2:1
-1:-1
0:2:1
-1:-1
0:6:1
-1:-1
0:1:1
-1:-1
0:1:1
-1:-1
0:1:1
-1:-1
3:0:1
0:-1
0:0:1
-1:-1
0:3:1
-1:-1
0:3:1
-1:-1
0:3:1
-1:-1
1:2:1
-1:-1
0:2:1
-1:-1
1:3:1
-1:-1
0:1:1
-1:-1
0:1:1
-1:-1
0:2:1
-1:-1
2:0:1
0:-1
0:2:1
-1:-1
0:1:1
-1:1
0:5:1
-1:-1
2:1:1
0:-1
0:1:1
-1:-1
1:1:1
-1:-1
0:3:1
-1:-1
0:3:1
-1:-1
3:4:1
0:-1
0:5:1
-1:-1
2:2:1
0:1
3:7:2
0:-1
0:8:2
-1:-1
2:4:1
0:1
0:6:2
-1:-1
0:11:1
-1:1
0:6:1
-1:-1
0:14:1
-1:-1
0:9:1
-1:-1
2:11:1
0:1
0:2:2
-1:0
0:5:1
-1:-1
1:1:1
-1:-1
0:3:1
-1:-1
0:0:1
-1:-1
4:3:1
1:1
0:1:2
-1:-1
0:8:1
-1:-1
0:2:1
-1:1
0:1:1
-1:-1
0:5:1
-1:-1
0:14:1
-1:-1
0:4:1
-1:1
0:3:1
-1:-1
0:9:1
-1:1
0:3:1
-1:-1
0:2:1
-1:-1
0:1:1
-1:-1
0:6:1
-1:1
0:8:1
-1:-1
0:1:1
-1:-1
0:6:1
-1:-1
0:3:1
-1:-1
0:7:1
-1:-1
0:7:1
-1:-1
0:1:1
-1:-1
0:5:1
-1:-1
0:4:1
-1:1
0:7:1
-1:-1
0:2:1
-1:-1
1:8:1
-1:-1
0:6:1
-1:1
0:6:1
-1:1
0:25:1
-1:-1
0:16:1
-1:1
2:20:1
0:1
0:16:2
-1:-1
0:20:1
-1:1
2:14:1
0:1
0:5:2
-1:-1
0:2:1
-1:1
0:12:1
-1:1
0:7:1
-1:-1
0:1:1
-1:-1
0:3:1
-1:-1
0:0:1
-1:-1
0:1:1
-1:-1
0:1:1
-1:-1
0:10:1
-1:-1
0:9:1
-1:1
0:7:1
-1:1
2:16:1
0:-1
0:28:1
-1:1
0:19:1
-1:1
0:23:1
-1:1
0:26:1
-1:1
0:34:1
-1:1
2:21:1
0:-1
0:24:1
-1:-1
2:31:1
0:1
1:29:2
-1:0
4:32:1
1:1
1:22:2
-1:-1
2:25:1
0:1
0:37:2
-1:-1
1:29:1
-1:1
2:21:1
0:-1
2:20:1
0:1
2:21:2
0:0
0:20:2
-1:-1
2:27:1
0:-1
2:25:1
0:-1
0:23:1
-1:1
0:18:1
-1:-1
0:16:1
-1:-1
0:19:1
-1:1
0:20:1
-1:1
0:25:1
-1:1
0:26:1
-1:-1
1:30:1
-1:-1
0:24:1
-1:-1
2:18:1
0:1
1:24:2
-1:-1
0:25:1
-1:1
2:20:1
0:-1
0:36:1
-1:-1
0:29:1
-1:1
1:21:1
-1:1
0:29:1
-1:1
0:26:1
-1:1
0:25:1
-1:1
3:22:1
0:-1
0:18:1
-1:-1
1:29:1
-1:-1
1:20:1
-1:-1
0:19:1
-1:-1
0:24:1
-1:1
2:27:1
0:-1
0:22:1
-1:-1
0:25:1
-1:1
0:21:1
-1:1
0:21:1
-1:1
2:25:1
0:1
0:27:2
-1:-1
2:31:1
0:-1
0:32:1
-1:-1
0:22:1
-1:1
0:24:1
-1:1
0:21:1
-1:1
0:31:1
-1:-1
0:14:1
-1:1
1:24:1
-1:1
2:28:1
0:-1
0:22:1
-1:1
1:14:1
-1:-1
0:22:1
-1:1
0:17:1
-1:1
0:17:1
-1:-1
0:18:1
-1:1
1:8:1
-1:-1
0:24:1
-1:1
0:24:1
-1:1
0:24:1
-1:1
0:22:1
-1:1
0:27:1
-1:1
0:26:1
-1:1
0:18:1
-1:1
0:26:1
-1:-1
0:19:1
-1:-1
1:25:1
-1:1
0:18:1
-1:-1
0:25:1
-1:-1
0:37:1
-1:1
2:41:1
0:1
0:27:2
-1:0
4:18:1
1:1
0:29:2
-1:-1
0:29:1
-1:-1
2:31:1
0:1
2:26:2
0:-1
0:13:2
-1:-1
0:7:1
-1:1
0:3:1
-1:1
0:4:1
-1:1
0:4:1
-1:1
0:4:1
-1:-1
0:10:1
-1:-1
3:8:1
0:-1
1:19:1
-1:-1
1:25:1
-1:-1
0:16:1
-1:-1
0:31:1
-1:-1
1:35:1
-1:-1
0:11:1
-1:-1
1:7:1
-1:1
0:4:1
-1:-1
0:6:1
-1:-1
0:9:1
-1:-1
0:3:1
-1:-1
2:11:1
0:1
0:3:2
-1:-1
0:5:1
-1:1
0:8:1
-1:1
2:6:1
0:-1
2:4:1
0:-1
1:7:1
-1:1
0:4:1
-1:-1
0:6:1
-1:1
2:10:1
0:1
0:6:2
-1:-1
0:5:1
-1:-1
0:12:1
-1:-1
1:7:1
-1:1
0:16:1
-1:-1
0:7:1
-1:1
0:21:1
-1:1
1:22:1
-1:1
2:20:1
0:-1
0:4:1
-1:-1
0:8:1
-1:-1
0:3:1
-1:-1
2:4:1
0:-1
0:7:1
-1:-1
2:6:1
0:-1
0:8:1
-1:1
0:6:1
-1:1
0:5:1
-1:1
0:6:1
-1:1
1:3:1
-1:1
0:8:1
-1:-1
0:7:1
-1:-1
0:8:1
-1:-1
0:9:1
-1:-1
0:12:1
-1:-1
0:6:1
-1:-1
0:5:1
-1:-1
1:6:1
-1:-1
0:13:1
-1:-1
0:14:1
-1:1
0:4:1
-1:-1
1:3:1
-1:-1
0:3:1
-1:-1
1:3:1
-1:1
0:0:1
-1:-1
0:1:1
-1:-1
0:4:1
-1:-1
0:5:1
-1:-1
0:2:1
-1:-1
2:4:1
0:1
0:5:2
-1:1
0:1:2
-1:-1
0:2:1
-1:-1
0:7:1
-1:1
0:4:1
-1:1
0:3:1
-1:-1
0:0:1
-1:-1
2:6:1
0:-1
2:5:1
0:-1
0:9:1
-1:1
0:3:1
-1:-1
0:7:1
-1:-1
0:5:1
-1:1
0:7:1
-1:1
0:2:1
-1:1
0:0:1
-1:-1
0:2:1
-1:-1
0:6:1
-1:-1
2:2:1
0:-1
0:4:1
-1:-1
1:3:1
-1:-1
0:6:1
-1:-1
0:5:1
-1:1
1:5:1
-1:-1
0:2:1
-1:-1
0:1:1
-1:-1
0:2:1
-1:-1
0:6:1
-1:1
0:1:1
-1:-1
0:1:1
-1:-1
0:17:1
-1:1
0:8:1
-1:-1
0:9:1
-1:-1
4:6:1
1:1
0:8:2
-1:-1
0:17:1
-1:1
0:14:1
-1:-1
3:14:1
0:-1
0:9:1
-1:-1
0:11:1
-1:1
0:20:1
-1:1
0:14:1
-1:-1
0:18:1
-1:1
1:17:1
-1:1
2:26:1
0:-1
0:19:1
-1:-1
0:3:1
-1:1
1:2:1
-1:1
0:1:1
-1:-1
1:5:1
-1:-1
0:10:1
-1:1
0:4:1
-1:-1
4:10:1
1:-1
0:11:1
-1:-1
0:5:1
-1:-1
3:17:1
0:-1
0:5:1
-1:-1
0:2:1
-1:1
0:1:1
-1:-1
0:4:1
-1:-1
0:0:1
-1:-1
2:8:1
0:-1
0:1:1
-1:-1
0:1:1
-1:-1
1:2:1
-1:-1
2:9:1
0:-1
0:7:1
-1:-1
1:6:1
-1:-1
0:4:1
-1:-1
0:2:1
-1:-1
0:4:1
-1:-1
0:1:1
-1:-1
0:2:1
-1:-1
0:3:1
-1:-1
0:4:1
-1:-1
0:7:1
-1:1
0:2:1
-1:-1
0:4:1
-1:1
0:7:1
-1:1
0:8:1
-1:-1
0:2:1
-1:1
2:34:1
0:1
0:10:2
-1:0
0:23:1
-1:1
2:17:1
0:1
0:19:2
-1:0
0:18:1
-1:1
1:19:1
-1:1
0:10:1
-1:-1
0:7:1
-1:1
0:3:1
-1:-1
2:1:1
0:1
0:5:2
-1:0
0:5:1
-1:-1
0:2:1
-1:-1
0:3:1
-1:-1
0:5:1
-1:-1
0:4:1
-1:-1
0:4:1
-1:1
0:4:1
-1:1
0:1:1
-1:-1
0:3:1
-1:-1
0:2:1
-1:1
0:2:1
-1:1
0:6:1
-1:-1
4:9:1
1:-1
0:10:1
-1:1
0:14:1
-1:-1
0:8:1
-1:1
0:1:1
-1:-1
0:35:1
-1:1
0:14:1
-1:1
0:21:1
-1:1
0:15:1
-1:1
0:30:1
-1:1
0:32:1
-1:1
0:25:1
-1:1
0:36:1
-1:-1
0:15:1
-1:-1
0:4:1
-1:1
0:8:1
-1:-1
0:4:1
-1:-1
0:6:1
-1:1
0:1:1
-1:-1
0:10:1
-1:-1
0:11:1
-1:1
0:9:1
-1:-1
0:3:1
-1:1
0:12:1
-1:-1
0:1:1
-1:-1
0:5:1
-1:1
0:7:1
-1:-1
0:1:1
-1:-1
0:1:1
-1:-1
0:1:1
-1:-1
0:3:1
-1:-1
0:10:1
-1:-1
0:7:1
-1:-1
0:3:1
-1:-1
0:1:1
-1:-1
0:9:1
-1:-1
1:3:1
-1:-1
0:4:1
-1:-1
0:6:1
-1:-1
0:9:1
-1:-1
0:3:1
-1:-1
1:6:1
-1:-1
0:9:1
-1:-1
0:1:1
-1:-1
1:6:1
-1:-1
0:27:1
-1:-1
0:20:1
-1:1
1:18:1
-1:-1
0:18:1
-1:1
0:50:1
-1:1
0:34:1
-1:1
2:27:1
0:1
0:26:2
-1:-1
0:27:1
-1:1
0:22:1
-1:1
0:25:1
-1:-1
0:18:1
-1:1
0:26:1
-1:-1
0:25:1
-1:1
2:23:1
0:-1
0:22:1
-1:-1
0:20:1
-1:1
0:17:1
-1:1
2:25:1
0:1
0:20:2
-1:0
0:20:1
-1:-1
0:20:1
-1:1
0:29:1
-1:1
1:17:1
-1:1
0:27:1
-1:-1
2:23:1
0:1
2:31:2
0:0
2:24:2
0:-1
1:23:2
-1:-1
0:25:1
-1:1
1:7:1
-1:-1
0:10:1
-1:-1
1:8:1
-1:1
0:3:1
-1:-1
0:7:1
-1:1
2:6:1
0:-1
0:11:1
-1:-1
0:5:1
-1:-1
0:8:1
-1:-1
0:8:1
-1:1
0:1:1
-1:-1
0:0:1
-1:-1
0:1:1
-1:-1
0:5:1
-1:-1
0:8:1
-1:-1
0:2:1
-1:-1
0:1:1
-1:-1
0:4:1
-1:-1
0:9:1
-1:-1
0:2:1
-1:-1
0:8:1
-1:-1
0:13:1
-1:-1
1:8:1
-1:-1
0:13:1
-1:-1
0:11:1
-1:-1
4:5:1
1:-1
2:4:1
0:-1
0:10:1
-1:-1
0:6:1
-1:-1
0:14:1
-1:-1
0:2:1
-1:1
0:6:1
-1:-1
0:2:1
-1:-1
0:5:1
-1:-1
0:1:1
-1:-1
0:3:1
-1:-1
0:3:1
-1:-1
0:1:1
-1:1
0:3:1
-1:-1
0:3:1
-1:1
0:2:1
-1:-1
0:4:1
-1:-1
1:1:1
-1:-1
1:2:1
-1:1
0:2:1
-1:-1
0:9:1
-1:-1
1:3:1
-1:1
0:15:1
-1:-1
0:26:1
-1:-1
0:17:1
-1:1
2:25:1
0:1
0:14:2
-1:-1
4:15:1
1:-1
1:18:1
-1:1
0:23:1
-1:-1
0:18:1
-1:1
2:21:1
0:1
0:26:2
-1:0
0:30:1
-1:1
0:17:1
-1:1
0:21:1
-1:1
0:19:1
-1:1
2:16:1
0:-1
1:27:1
-1:-1
0:23:1
-1:-1
0:19:1
-1:-1
0:21:1
-1:-1
0:25:1
-1:-1
0:13:1
-1:1
0:5:1
-1:-1
0:4:1
-1:-1
0:5:1
-1:1
2:2:1
0:-1
0:3:1
-1:-1
0:6:1
-1:-1
1:5:1
-1:-1
0:4:1
-1:-1
0:1:1
-1:-1
0:3:1
-1:-1
0:2:1
-1:-1
0:1:1
-1:-1
2:4:1
0:-1
0:4:1
-1:-1
2:3:1
0:1
0:1:2
-1:-1
0:3:1
-1:-1
0:4:1
-1:-1
0:3:1
-1:1
0:1:1
-1:-1
0:10:1
-1:-1
0:5:1
-1:1
0:0:1
-1:-1
0:3:1
-1:-1
0:10:1
-1:-1
0:7:1
-1:-1
0:9:1
-1:1
0:1:1
-1:-1
0:6:1
-1:-1
0:6:1
-1:-1
0:2:1
-1:1
0:7:1
-1:-1
0:3:1
-1:-1
0:5:1
-1:1
0:2:1
-1:-1
0:4:1
-1:1
0:3:1
-1:-1
0:2:1
-1:-1
0:10:1
-1:-1
0:1:1
-1:-1
0:7:1
-1:-1
0:5:1
-1:-1
0:4:1
-1:-1
0:3:1
-1:-1
1:2:1
-1:-1
0:8:1
-1:-1
0:6:1
-1:-1
1:4:1
-1:-1
0:2:1
-1:-1
0:1:1
-1:-1
0:7:1
-1:1
0:1:1
-1:-1
0:11:1
-1:1
0:10:1
-1:-1
2:8:1
0:1
0:10:2
-1:-1
0:11:1
-1:1
2:10:1
0:1
3:3:2
0:-1
0:9:2
-1:-1
1:4:1
-1:-1
1:3:1
-1:-1
3:4:1
0:1
0:2:2
-1:-1
0:7:1
-1:1
0:2:1
-1:-1
0:6:1
-1:1
0:7:1
-1:1
0:4:1
-1:-1
0:29:1
-1:-1
0:14:1
-1:1
0:21:1
-1:-1
0:14:1
-1:1
0:19:1
-1:1
4:17:1
1:1
0:18:2
-1:0
0:18:1
-1:-1
0:12:1
-1:-1
0:16:1
-1:-1
0:16:1
-1:1
0:6:1
-1:1
1:2:1
-1:1
0:8:1
-1:-1
0:8:1
-1:1
0:6:1
-1:-1
0:3:1
-1:1
0:2:1
-1:-1
1:1:1
-1:-1
0:8:1
-1:-1
0:4:1
-1:1
0:2:1
-1:1
0:2:1
-1:1
0:2:1
-1:1
0:2:1
-1:1
0:0:1
-1:-1
0:6:1
-1:-1
0:3:1
-1:-1
0:9:1
-1:-1
0:5:1
-1:-1
0:9:1
-1:-1
0:3:1
-1:1
0:6:1
-1:-1
0:6:1
-1:-1
0:2:1
-1:-1
0:2:1
-1:-1
0:5:1
-1:1
0:10:1
-1:1
0:10:1
-1:-1
0:13:1
-1:-1
0:3:1
-1:-1
1:2:1
-1:1
0:8:1
-1:-1
0:57:1
-1:-1
0:54:1
-1:1
0:12:1
-1:-1
3:3:1
0:-1
0:2:1
-1:-1
0:0:1
-1:-1
0:4:1
-1:-1
0:2:1
-1:-1
0:0:1
-1:-1
1:1:1
-1:-1
0:2:1
-1:-1
0:3:1
-1:-1
0:2:1
-1:-1
0:2:1
-1:1
0:5:1
-1:-1
0:3:1
-1:-1
1:0:1
-1:-1
0:6:1
-1:-1
1:3:1
-1:-1
0:15:1
-1:-1
0:11:1
-1:1
0:43:1
-1:-1
0:82:1
-1:-1
0:56:1
-1:1
0:29:1
-1:-1
0:9:1
-1:1
0:3:1
-1:-1
1:1:1
-1:-1
4:3:1
1:1
0:3:2
-1:1
0:3:2
-1:0
1:4:1
-1:-1
0:1:1
-1:-1
0:1:1
-1:-1
1:2:1
[...]
-1:-1
0:11:1
-1:-1
0:8:1
-1:1
0:11:1
-1:1
0:5:1
-1:-1
0:8:1
-1:-1
0:13:1
-1:-1
0:40:1
-1:1
0:46:1
-1:1
0:25:1
-1:1
2:26:1
0:1
2:20:2
0:-1
0:22:2
-1:0
2:22:1
0:1
0:38:2
-1:-1
0:30:1
-1:1
0:8:1
-1:-1
0:7:1
-1:-1
0:3:1
-1:-1
1:8:1
-1:-1
0:6:1
-1:-1
0:9:1
-1:-1
1:4:1
-1:-1
0:3:1
-1:-1
0:4:1
-1:-1
1:1:1
-1:-1
1:1:1
-1:-1
3:6:1
0:1
0:3:2
-1:1
0:1:2
-1:-1
0:1:1
-1:-1
2:1:1
0:-1
0:9:1
-1:-1
0:4:1
-1:1
1:1:1
-1:-1
0:2:1
-1:-1
0:2:1
-1:1
2:1:1
0:-1
0:1:1
-1:-1
0:2:1
-1:1
2:32:1
0:1
2:17:2
0:-1
0:13:2
-1:-1
2:26:1
0:1
3:18:2
0:-1
0:21:2
-1:-1
0:24:1
-1:1
0:18:1
-1:1
4:15:1
1:1
6:14:2
1:0
0:20:3
-1:0
3:8:2
0:0
2:21:2
0:1
4:8:3
1:-1
0:1:3
-1:-1
0:1:2
-1:-1
0:1:1
-1:-1
1:20:1
-1:1
0:6:1
-1:-1
0:4:1
-1:-1
0:4:1
-1:1
1:5:1
-1:-1
0:12:1
-1:-1
0:9:1
-1:1
0:4:1
-1:-1
0:6:1
-1:-1
0:5:1
-1:-1
1:37:1
-1:1
0:15:1
-1:-1
0:23:1
-1:1
2:28:1
0:-1
0:26:1
-1:1
1:23:1
-1:1
0:27:1
-1:-1
0:35:1
-1:-1
0:26:1
-1:1
2:39:1
0:1
0:22:2
-1:-1
2:22:1
0:-1
0:23:1
-1:1
0:24:1
-1:1
0:37:1
-1:1
0:36:1
-1:1
2:28:1
0:1
0:29:2
-1:-1
2:23:1
0:1
0:15:2
-1:-1
0:4:1
-1:-1
0:6:1
-1:1
0:7:1
-1:-1
1:6:1
-1:-1
0:11:1
-1:1
0:6:1
-1:-1
0:4:1
-1:-1
0:10:1
-1:1
0:7:1
-1:1
0:5:1
-1:1
0:6:1
-1:-1
0:2:1
-1:-1
0:4:1
-1:-1
0:6:1
-1:-1
0:7:1
-1:-1
0:6:1
-1:1
0:3:1
-1:-1
2:5:1
0:-1
0:8:1
-1:-1
0:5:1
-1:-1
0:8:1
-1:-1
0:2:1
-1:-1
0:10:1
-1:-1
0:5:1
-1:-1
0:6:1
-1:-1
0:4:1
-1:-1
2:7:1
0:-1
0:3:1
-1:-1
0:3:1
-1:-1
0:3:1
-1:-1
0:1:1
-1:-1
0:12:1
-1:1
0:1:1
-1:-1
1:3:1
-1:1
0:5:1
-1:-1
0:1:1
-1:-1
0:3:1
-1:-1
0:8:1
-1:-1
0:1:1
-1:-1
0:5:1
-1:1
0:6:1
-1:1
1:10:1
-1:1
1:18:1
-1:-1
0:14:1
-1:-1
0:9:1
-1:1
2:10:1
0:-1
0:2:1
-1:-1
0:7:1
-1:-1
0:4:1
-1:1
0:4:1
-1:1
0:0:1
-1:-1
0:5:1
-1:-1
0:3:1
-1:-1
2:8:1
0:1
0:1:2
-1:-1
0:2:1
-1:1
0:1:1
-1:-1
0:4:1
-1:-1
0:6:1
-1:-1
0:5:1
-1:-1
0:6:1
-1:-1
0:3:1
-1:-1
0:4:1
-1:-1
0:5:1
-1:1
0:3:1
-1:1
0:1:1
-1:1
0:9:1
-1:-1
0:6:1
-1:-1
0:2:1
-1:1
0:30:1
-1:1
0:15:1
-1:1
0:12:1
-1:1
2:23:1
0:-1
1:19:1
-1:-1
2:21:1
0:1
3:22:2
0:-1
0:23:2
-1:0
0:11:1
-1:-1
0:14:1
-1:-1
0:14:1
-1:1
0:12:1
-1:1
0:11:1
-1:1
0:13:1
-1:1
0:7:1
-1:1
0:1:1
-1:-1
0:6:1
-1:-1
0:1:1
-1:-1
0:6:1
-1:-1
0:5:1
-1:-1
0:2:1
-1:-1
0:7:1
-1:-1
0:8:1
-1:-1
0:5:1
-1:-1
0:2:1
-1:-1
0:0:1
-1:-1
0:13:1
-1:-1
0:7:1
-1:-1
0:6:1
-1:-1
0:1:1
-1:-1
0:4:1
-1:1
1:41:1
-1:1
0:60:1
-1:-1
0:18:1
-1:1
0:3:1
-1:-1
0:3:1
-1:-1
0:2:1
-1:-1
0:7:1
-1:1
0:2:1
-1:-1
1:0:1
-1:-1
0:2:1
-1:-1
0:9:1
-1:-1
0:1:1
-1:-1
0:0:1
-1:-1
0:4:1
-1:-1
0:2:1
-1:-1
2:1:1
0:-1
0:5:1
-1:-1
0:10:1
-1:-1
0:22:1
-1:-1
0:13:1
-1:1
0:40:1
-1:-1
0:70:1
-1:1
1:37:1
-1:-1
0:42:1
-1:-1
0:16:1
-1:-1
4:3:1
1:-1
0:3:1
-1:-1
0:1:1
-1:-1
0:2:1
-1:-1
0:1:1
-1:-1
0:2:1
-1:-1
2:2:1
0:-1
0:2:1
-1:-1
0:2:1
-1:-1
0:3:1
-1:-1
0:3:1
-1:-1
0:2:1
-1:1
0:1:1
-1:-1
0:2:1
-1:-1
1:5:1
-1:-1
0:3:1
-1:-1
0:2:1
-1:-1
0:3:1
-1:-1
0:10:1
-1:-1
0:6:1
-1:-1
1:4:1
-1:-1
0:6:1
-1:-1
0:5:1
-1:-1
0:6:1
-1:-1
1:3:1
-1:-1
0:2:1
-1:1
0:2:1
-1:-1
1:4:1
-1:-1
0:4:1
-1:-1
3:2:1
0:-1
0:0:1
-1:-1
0:3:1
-1:-1
0:6:1
-1:-1
0:4:1
-1:-1
0:3:1
-1:-1
3:3:1
0:-1
0:5:1
-1:1
0:3:1
-1:-1
0:1:1
-1:-1
0:1:1
-1:-1
0:5:1
-1:-1
0:2:1
-1:-1
0:3:1
-1:-1
0:0:1
-1:-1
0:3:1
-1:-1
0:4:1
-1:-1
1:2:1
-1:-1
0:4:1
-1:-1
1:3:1
-1:-1
3:6:1
0:-1
0:2:1
-1:-1
1:0:1
-1:-1
0:4:1
-1:-1
0:4:1
-1:1
0:4:1
-1:-1
0:1:1
-1:-1
0:6:1
-1:-1
4:6:1
1:1
0:2:2
-1:1
1:2:2
-1:-1
0:6:1
-1:1
1:6:1
-1:-1
0:5:1
-1:-1
0:4:1
-1:-1
0:5:1
-1:-1
0:10:1
-1:-1
0:1:1
-1:-1
0:8:1
-1:-1
0:1:1
-1:-1
0:4:1
-1:-1
0:3:1
-1:-1
7:5:1
1:-1
0:10:1
-1:-1
0:4:1
-1:-1
3:6:1
0:-1
0:1:1
-1:-1
0:6:1
-1:-1
0:8:1
-1:-1
1:2:1
-1:-1
0:8:1
-1:-1
4:3:1
1:-1
2:6:1
0:-1
0:4:1
-1:1
0:5:1
-1:-1
0:4:1
-1:1
3:4:1
0:-1
0:5:1
-1:-1
0:5:1
-1:1
0:5:1
-1:-1
0:1:1
-1:-1
0:2:1
-1:-1
0:4:1
-1:-1
2:4:1
0:-1
0:10:1
-1:-1
3:14:1
0:-1
0:7:1
-1:-1
1:2:1
-1:1
1:5:1
-1:-1
3:7:1
0:-1
0:9:1
-1:-1
0:9:1
-1:-1
0:2:1
-1:1
0:4:1
-1:-1
0:3:1
-1:-1
0:4:1
-1:-1
0:3:1
-1:-1
2:6:1
0:1
0:8:2
-1:0
0:13:1
-1:-1
1:4:1
-1:-1
0:3:1
-1:-1
0:3:1
-1:1
0:6:1
-1:1
1:7:1
-1:1
0:4:1
-1:-1
0:8:1
-1:-1
0:5:1
-1:-1
0:5:1
-1:1
1:2:1
-1:-1
4:3:1
1:-1
0:3:1
-1:1
4:5:1
1:-1
0:8:1
-1:1
0:2:1
-1:-1
3:9:1
0:-1
0:11:1
-1:-1
0:4:1
-1:-1
1:6:1
-1:-1
2:5:1
0:-1
0:4:1
-1:-1
0:7:1
-1:-1
1:14:1
-1:-1
0:11:1
-1:-1
0:8:1
-1:-1
0:11:1
-1:-1
1:7:1
-1:-1
0:2:1
-1:1
0:4:1
-1:-1
0:10:1
-1:-1
0:10:1
-1:-1
0:4:1
-1:-1
1:9:1
-1:1
1:12:1
-1:-1
0:1:1
-1:-1
0:3:1
-1:-1
0:14:1
-1:-1
0:8:1
-1:-1
0:10:1
-1:-1
3:9:1
0:-1
0:10:1
-1:-1
0:6:1
-1:-1
1:7:1
-1:-1
0:6:1
-1:1
0:10:1
-1:-1
1:10:1
-1:-1
1:5:1
-1:-1
0:3:1
-1:-1
2:4:1
0:-1
0:5:1
-1:-1
0:10:1
-1:1
1:8:1
-1:-1
0:5:1
-1:-1
0:12:1
-1:1
0:6:1
-1:1
2:3:1
0:-1
0:9:1
-1:-1
0:7:1
-1:-1
1:2:1
-1:-1
0:7:1
-1:-1
2:6:1
0:-1
0:5:1
-1:-1
0:6:1
-1:-1
0:9:1
-1:-1
0:10:1
-1:-1
0:4:1
-1:-1
0:3:1
-1:-1
0:6:1
-1:1
1:12:1
-1:1
0:2:1
-1:-1
0:8:1
-1:-1
0:8:1
-1:-1
2:4:1
0:-1
0:4:1
-1:-1
0:3:1
-1:-1
0:7:1
-1:-1
0:3:1
-1:-1
0:7:1
-1:-1
1:8:1
-1:-1
0:5:1
-1:-1
0:14:1
-1:1
0:6:1
-1:1
0:14:1
-1:-1
0:1:1
-1:-1
0:5:1
-1:-1
0:2:1
-1:-1
0:6:1
-1:1
0:5:1
-1:1
1:12:1
-1:-1
0:5:1
-1:-1
0:11:1
-1:-1
0:12:1
-1:-1
0:2:1
-1:-1
0:1:1
-1:-1
0:6:1
-1:-1
0:7:1
-1:-1
0:3:1
-1:-1
0:4:1
-1:-1
3:5:1
0:-1
0:2:1
-1:-1
1:10:1
-1:-1
1:6:1
-1:-1
1:8:1
-1:-1
1:3:1
-1:-1
0:2:1
-1:1
0:4:1
-1:-1
0:9:1
-1:1
0:9:1
-1:-1
3:5:1
0:-1
2:4:1
0:1
0:6:2
-1:-1
0:6:1
-1:-1
0:6:1
-1:-1
0:16:1
-1:-1
1:12:1
-1:-1
3:6:1
0:-1
0:6:1
-1:1
0:5:1
-1:-1
1:20:1
-1:1
3:7:1
0:-1
0:2:1
-1:1
0:9:1
-1:-1
0:9:1
-1:-1
1:4:1
-1:1
0:3:1
-1:-1
0:10:1
-1:-1
0:12:1
-1:-1
0:1:1
-1:-1
3:4:1
0:-1
0:1:1
-1:-1
0:2:1
-1:-1
0:8:1
-1:-1
0:4:1
-1:-1
0:5:1
-1:-1
1:7:1
-1:-1
1:5:1
-1:-1
0:16:1
-1:-1
0:9:1
-1:-1
0:12:1
-1:-1
0:8:1
-1:1
2:3:1
0:-1
0:1:1
-1:-1
0:7:1
-1:-1
0:2:1
-1:-1
1:2:1
-1:-1
3:9:1
0:-1
0:4:1
-1:-1
0:12:1
-1:1
3:2:1
0:-1
2:4:1
0:-1
0:0:1
-1:-1
0:5:1
-1:-1
2:1:1
0:-1
1:3:1
-1:-1
2:2:1
0:-1
1:3:1
-1:-1
3:2:1
0:-1
0:1:1
-1:1
0:2:1
-1:-1
3:2:1
0:-1
2:3:1
0:1
2:3:2
0:0
0:1:2
-1:-1
2:2:1
0:-1
2:2:1
0:-1
2:2:1
0:-1
0:3:1
-1:-1
2:4:1
0:-1
0:2:1
-1:-1
0:1:1
-1:-1
2:2:1
0:-1
0:2:1
-1:-1
2:2:1
0:-1
2:4:1
0:-1
0:0:1
-1:-1
3:3:1
0:-1
1:2:1
-1:-1
0:1:1
-1:-1
2:3:1
0:-1
2:2:1
0:-1
0:1:1
-1:-1
0:6:1
-1:-1
2:3:1
0:-1
1:2:1
-1:-1
0:3:1
-1:-1
6:4:1
1:-1
2:4:1
0:-1
4:4:1
1:-1
3:5:1
0:-1
2:6:1
0:1
5:5:2
1:0
2:5:3
0:-1
5:1:3
1:-1
0:2:3
-1:-1
7:3:2
1:-1
0:3:2
-1:-1
3:8:1
0:-1
2:0:1
0:-1
2:8:1
0:-1
4:7:1
1:-1
6:4:1
1:-1
0:4:1
-1:-1
6:4:1
1:1
6:6:2
1:0
1:7:3
-1:0
4:3:2
1:0
1:6:3
-1:-1
4:4:2
1:1
3:8:3
0:-1
5:3:3
1:-1
1:4:3
-1:-1
0:3:2
-1:1
0:6:2
-1:1
4:4:2
1:-1
6:8:2
1:-1
3:7:2
0:0
0:7:2
-1:0
6:3:1
1:-1
1:7:1
-1:-1
0:2:1
-1:-1
0:4:1
-1:-1
0:6:1
-1:-1
4:3:1
1:-1
4:2:1
1:-1
7:2:1
1:-1
0:10:1
-1:-1
2:2:1
0:-1
2:2:1
0:-1
6:8:1
1:-1
6:9:1
1:-1
0:6:1
-1:-1
0:3:1
-1:-1
3:6:1
0:-1
2:2:1
0:1
5:6:2
1:-1
0:5:2
-1:1
0:3:2
-1:-1
4:2:1
1:-1
0:5:1
-1:-1
2:6:1
0:-1
4:6:1
1:-1
7:5:1
1:-1
0:2:1
-1:-1
0:15:1
-1:-1
7:4:1
1:-1
0:7:1
-1:-1
0:3:1
-1:-1
3:4:1
0:-1
4:6:1
1:1
4:7:2
1:-1
0:8:2
-1:-1
0:7:1
-1:-1
7:4:1
1:-1
1:6:1
-1:-1
2:5:1
0:-1
3:4:1
0:-1
0:1:1
-1:-1
0:6:1
-1:-1
0:6:1
-1:-1
2:4:1
0:-1
0:5:1
-1:-1
0:5:1
-1:-1
0:7:1
-1:-1
1:4:1
-1:-1
0:9:1
-1:-1
0:6:1
-1:-1
3:4:1
0:-1
0:5:1
-1:-1
3:4:1
0:-1
2:7:1
0:-1
0:4:1
-1:-1
0:4:1
-1:1
0:12:1
-1:1
2:16:1
0:-1
0:6:1
-1:1
0:5:1
-1:1
2:3:1
0:-1
0:2:1
-1:-1
2:6:1
0:-1
0:6:1
-1:-1
0:6:1
-1:-1
0:4:1
-1:-1
1:6:1
-1:-1
2:6:1
0:1
2:2:2
0:0
0:3:2
-1:0
0:3:1
-1:-1
0:10:1
-1:1
0:1:1
-1:-1
1:4:1
-1:-1
3:6:1
0:-1
0:8:1
-1:-1
0:7:1
-1:-1
0:10:1
-1:-1
0:10:1
-1:1
0:2:1
-1:-1
0:5:1
-1:-1
0:3:1
-1:-1
0:4:1
-1:-1
0:4:1
-1:-1
1:5:1
-1:-1
0:4:1
-1:-1
3:3:1
0:-1
0:2:1
-1:1
0:2:1
-1:-1
0:2:1
-1:-1
0:2:1
-1:-1
0:4:1
-1:-1
0:2:1
-1:-1
0:9:1
-1:-1
0:3:1
-1:-1
0:6:1
-1:-1
0:4:1
-1:-1
0:7:1
-1:-1
3:2:1
0:-1
2:2:1
0:1
0:6:2
-1:0
0:7:1
-1:-1
0:2:1
-1:-1
0:7:1
-1:-1
0:4:1
-1:-1
0:9:1
-1:-1
0:7:1
-1:-1
0:2:1
-1:-1
0:7:1
-1:-1
1:1:1
-1:-1
0:2:1
-1:-1
0:3:1
-1:-1
0:9:1
-1:-1
0:2:1
-1:-1
0:4:1
-1:-1
0:4:1
-1:-1
0:2:1
-1:-1
0:7:1
-1:-1
0:2:1
-1:-1
0:8:1
-1:-1
0:6:1
-1:-1
0:3:1
-1:-1
0:6:1
-1:-1
2:6:1
0:-1
0:3:1
-1:-1
0:2:1
-1:-1
0:7:1
-1:-1
0:4:1
-1:-1
2:3:1
0:-1
0:4:1
-1:1
0:5:1
-1:-1
3:4:1
0:-1
0:3:1
-1:-1
2:6:1
0:-1
0:1:1
-1:1
0:8:1
-1:-1
0:4:1
-1:-1
0:1:1
-1:-1
0:4:1
-1:-1
0:2:1
-1:-1
0:2:1
-1:-1
0:5:1
-1:-1
0:5:1
-1:-1
0:6:1
-1:-1
3:9:1
0:-1
0:7:1
-1:-1
0:7:1
-1:-1
1:7:1
-1:-1
0:10:1
-1:-1
0:5:1
-1:-1
2:1:1
0:-1
0:3:1
-1:-1
0:2:1
-1:-1
2:1:1
0:-1
0:3:1
-1:-1
0:3:1
-1:-1
3:8:1
0:-1
3:3:1
0:-1
0:2:1
-1:-1
0:2:1
-1:-1
1:5:1
-1:-1
0:3:1
-1:-1
0:15:1
-1:-1
0:3:1
-1:-1
2:4:1
0:-1
3:2:1
0:-1
0:2:1
-1:1
0:5:1
-1:-1
1:4:1
-1:1
2:6:1
0:-1
0:3:1
-1:1
0:3:1
-1:-1
0:3:1
-1:1
0:4:1
-1:-1
1:6:1
-1:1
3:4:1
0:-1
0:2:1
-1:-1
0:4:1
-1:-1
2:7:1
0:-1
0:2:1
-1:1
4:8:1
1:-1
0:4:1
-1:1
0:11:1
-1:-1
1:11:1
-1:-1
2:12:1
0:-1
2:8:1
0:-1
0:9:1
-1:1
0:3:1
-1:-1
0:5:1
-1:-1
0:3:1
-1:-1
0:5:1
-1:-1
1:6:1
-1:-1
3:2:1
0:1
0:5:2
-1:0
0:7:1
-1:-1
0:5:1
-1:1
0:4:1
-1:-1
3:2:1
0:-1
4:4:1
1:1
0:5:2
-1:1
3:7:2
0:-1
0:3:2
-1:1
0:4:2
-1:-1
0:4:1
-1:-1
0:1:1
-1:-1
1:10:1
-1:-1
0:3:1
-1:1
0:2:1
-1:-1
0:5:1
-1:-1
4:2:1
1:-1
0:4:1
-1:1
0:4:1
-1:-1
2:5:1
0:-1
0:5:1
-1:-1
4:5:1
1:-1
2:5:1
0:-1
0:2:1
-1:-1
0:3:1
-1:-1
2:4:1
0:-1
2:3:1
0:-1
0:8:1
-1:-1
0:6:1
-1:-1
0:9:1
-1:-1
2:2:1
0:-1
3:6:1
0:1
2:5:2
0:-1
0:3:2
-1:-1
1:4:1
-1:-1
0:4:1
-1:1
0:5:1
-1:-1
0:9:1
-1:-1
1:2:1
-1:-1
0:2:1
-1:-1
0:2:1
-1:1
3:3:1
0:-1
0:4:1
-1:1
2:4:1
0:-1
0:7:1
-1:-1
0:4:1
-1:-1
1:2:1
-1:-1
0:1:1
-1:-1
0:3:1
-1:-1
0:2:1
-1:-1
2:3:1
0:-1
3:4:1
0:-1
3:4:1
0:-1
0:6:1
-1:1
0:4:1
-1:-1
2:3:1
0:-1
0:4:1
-1:1
2:7:1
0:-1
0:7:1
-1:-1
0:5:1
-1:1
2:4:1
0:-1
0:2:1
-1:-1
2:6:1
0:-1
0:4:1
-1:-1
0:3:1
-1:-1
1:7:1
-1:-1
1:8:1
-1:-1
0:3:1
-1:-1
0:3:1
-1:-1
0:7:1
-1:-1
3:8:1
0:1
0:2:2
-1:0
0:4:1
-1:-1
0:4:1
-1:-1
3:3:1
0:-1
2:2:1
0:-1
0:4:1
-1:-1
0:4:1
-1:-1
0:2:1
-1:-1
2:2:1
0:-1
2:5:1
0:-1
0:11:1
-1:-1
0:5:1
-1:-1
0:4:1
-1:-1
2:2:1
0:-1
3:4:1
0:-1
0:4:1
-1:-1
2:11:1
0:-1
2:3:1
0:-1
0:4:1
-1:-1
0:3:1
-1:-1
0:4:1
-1:-1
0:13:1
-1:-1
0:7:1
-1:-1
0:9:1
-1:1
0:7:1
-1:-1
0:2:1
-1:-1
3:2:1
0:-1
0:3:1
-1:-1
0:3:1
-1:-1
0:3:1
-1:-1
0:2:1
-1:-1
1:2:1
-1:-1
0:3:1
-1:1
0:3:1
-1:-1
0:7:1
-1:1
0:4:1
-1:-1
3:5:1
0:-1
3:2:1
0:-1
0:3:1
-1:1
0:3:1
-1:-1
0:12:1
-1:-1
0:4:1
-1:-1
0:5:1
-1:-1
0:13:1
-1:1
0:1:1
-1:-1
0:4:1
-1:-1
0:2:1
-1:-1
3:3:1
0:-1
0:3:1
-1:-1
0:4:1
-1:-1
3:4:1
0:-1
0:5:1
-1:-1
1:3:1
-1:-1
0:2:1
-1:-1
0:2:1
-1:-1
0:9:1
-1:-1
0:3:1
-1:-1
0:20:1
-1:-1
0:10:1
-1:-1
1:2:1
-1:-1
1:4:1
-1:-1
0:9:1
-1:-1
1:7:1
-1:-1
0:5:1
-1:-1
0:9:1
-1:-1
0:15:1
-1:-1
0:10:1
-1:-1
0:17:1
-1:-1
0:8:1
-1:1
0:10:1
-1:-1
2:19:1
0:-1
0:15:1
-1:-1
2:14:1
0:-1
2:8:1
0:-1
0:14:1
-1:-1
0:8:1
-1:-1
0:12:1
-1:-1
0:11:1
-1:-1
0:15:1
-1:-1
1:13:1
-1:-1
0:14:1
-1:-1
0:11:1
-1:1
0:12:1
-1:1
2:14:1
0:1
0:7:2
-1:-1
0:10:1
-1:-1
2:10:1
0:-1
0:9:1
-1:1
2:19:1
0:-1
0:11:1
-1:-1
0:12:1
-1:-1
0:17:1
-1:-1
0:16:1
-1:-1
2:15:1
0:-1
0:16:1
-1:1
0:12:1
-1:1
0:8:1
-1:-1
0:15:1
-1:-1
1:17:1
-1:-1
0:6:1
-1:-1
0:18:1
-1:-1
0:9:1
-1:-1
0:17:1
-1:-1
0:12:1
-1:1
0:18:1
-1:1
0:10:1
-1:-1
0:12:1
-1:1
0:15:1
-1:-1
1:19:1
-1:1
0:23:1
-1:1
0:15:1
-1:-1
0:15:1
-1:-1
1:14:1
-1:-1
0:15:1
-1:-1
0:15:1
-1:1
2:10:1
0:-1
1:18:1
-1:-1
1:9:1
-1:-1
0:21:1
-1:-1
0:10:1
-1:-1
5:16:1
1:1
1:13:2
-1:-1
0:11:1
-1:-1
1:8:1
-1:1
1:9:1
-1:-1
0:16:1
-1:-1
3:20:1
0:-1
0:15:1
-1:-1
0:22:1
-1:-1
2:11:1
0:-1
1:13:1
-1:-1
1:12:1
-1:1
2:13:1
0:1
0:11:2
-1:-1
1:18:1
-1:-1
2:12:1
0:-1
2:18:1
0:-1
0:26:1
-1:-1
0:18:1
-1:1
2:21:1
0:1
0:17:2
-1:-1
1:23:1
-1:1
0:17:1
-1:1
0:17:1
-1:1
0:18:1
-1:1
0:19:1
-1:-1
0:13:1
-1:-1
0:7:1
-1:-1
1:8:1
-1:-1
0:16:1
-1:-1
0:28:1
-1:1
1:20:1
-1:1
0:18:1
-1:-1
0:25:1
-1:-1
3:66:1
0:1
0:16:2
-1:-1
0:30:1
-1:1
0:21:1
-1:1
1:12:1
-1:1
1:12:1
-1:1
1:13:1
-1:1
0:9:1
-1:-1
1:14:1
-1:-1
1:16:1
-1:-1
2:26:1
0:1
2:21:2
0:0
0:10:2
-1:-1
0:20:1
-1:-1
1:21:1
-1:1
0:24:1
-1:1
0:18:1
-1:-1
0:27:1
-1:-1
0:21:1
-1:-1
0:31:1
-1:1
0:29:1
-1:1
0:28:1
-1:1
0:20:1
-1:-1
1:17:1
-1:-1
0:25:1
-1:-1
0:22:1
-1:1
0:32:1
-1:-1
0:18:1
-1:1
0:24:1
-1:1
2:38:1
0:-1
0:22:1
-1:1
0:30:1
-1:1
0:24:1
-1:-1
0:21:1
-1:1
0:34:1
-1:-1
0:23:1
-1:1
0:20:1
-1:-1
0:21:1
-1:1
2:20:1
0:1
0:23:2
-1:-1
2:16:1
0:-1
0:13:1
-1:1
0:58:1
-1:-1
2:35:1
0:-1
0:22:1
-1:-1
0:38:1
-1:1
2:35:1
0:-1
5:31:1
1:-1
2:35:1
0:-1
0:25:1
-1:-1
0:22:1
-1:1
0:37:1
-1:1
1:26:1
-1:1
0:36:1
-1:1
0:25:1
-1:1
0:39:1
-1:1
0:32:1
-1:-1
2:23:1
0:1
0:22:2
-1:-1
1:26:1
-1:-1
0:30:1
-1:-1
0:24:1
-1:1
2:7:1
0:1
0:52:2
-1:-1
0:25:1
-1:1
0:13:1
-1:-1
1:16:1
-1:-1
1:6:1
-1:-1
0:19:1
-1:1
1:15:1
-1:1
0:19:1
-1:-1
0:16:1
-1:1
0:20:1
-1:1
0:18:1
-1:1
0:7:1
-1:1
0:14:1
-1:-1
0:23:1
-1:1
0:23:1
-1:-1
0:15:1
-1:-1
1:12:1
-1:-1
2:18:1
0:1
0:9:2
-1:-1
0:14:1
-1:1
0:9:1
-1:-1
0:32:1
-1:-1
0:24:1
-1:1
0:3:1
-1:-1
0:4:1
-1:-1
0:5:1
-1:-1
0:6:1
-1:1
0:6:1
-1:-1
0:4:1
-1:1
0:8:1
-1:-1
0:7:1
-1:1
3:9:1
0:1
2:10:2
0:-1
1:8:2
-1:-1
0:6:1
-1:-1
0:5:1
-1:-1
3:14:1
0:1
0:2:2
-1:-1
1:10:1
-1:-1
0:6:1
-1:-1
0:0:1
-1:-1
0:1:1
-1:-1
0:2:1
-1:-1
0:1:1
-1:-1
2:0:1
0:-1
0:1:1
-1:-1
0:3:1
-1:-1
0:2:1
-1:1
0:1:1
-1:-1
0:2:1
-1:-1
0:0:1
-1:-1
0:0:1
-1:-1
0:2:1
-1:-1
0:2:1
-1:-1
0:3:1
-1:-1
0:1:1
-1:-1
0:0:1
-1:-1
0:1:1
-1:-1
0:0:1
-1:-1
0:1:1
-1:-1
0:2:1
-1:-1
0:1:1
-1:-1
0:2:1
-1:1
0:8:1
-1:1
0:3:1
-1:-1
0:2:1
-1:1
0:3:1
-1:-1
0:3:1
-1:-1
0:3:1
-1:-1
1:4:1
-1:-1
0:6:1
-1:1
0:5:1
-1:-1
0:4:1
-1:-1
0:2:1
-1:-1
0:2:1
-1:-1
0:4:1
-1:-1
0:23:1
-1:-1
0:15:1
-1:-1
1:18:1
-1:1
1:16:1
-1:1
0:17:1
-1:1
0:8:1
-1:-1
0:18:1
-1:-1
0:24:1
-1:1
0:14:1
-1:-1
0:1:1
-1:-1
0:1:1
-1:-1
0:7:1
-1:1
0:3:1
-1:-1
0:3:1
-1:-1
0:2:1
-1:1
0:8:1
-1:-1
0:3:1
-1:1
2:4:1
0:-1
0:2:1
-1:1
4:1:1
1:-1
0:4:1
-1:1
0:2:1
-1:-1
0:5:1
-1:-1
1:3:1
-1:-1
0:10:1
-1:-1
0:1:1
-1:-1
0:2:1
-1:1
0:3:1
-1:-1
0:1:1
-1:-1
2:7:1
0:-1
0:6:1
-1:1
0:1:1
-1:-1
0:7:1
-1:-1
0:2:1
-1:1
0:1:1
-1:-1
0:4:1
-1:-1
0:4:1
-1:-1
0:2:1
-1:-1
0:5:1
-1:-1
0:5:1
-1:-1
2:3:1
0:-1
0:1:1
-1:-1
0:9:1
-1:-1
1:3:1
-1:-1
0:1:1
-1:-1
1:8:1
-1:-1
0:5:1
-1:1
0:1:1
-1:-1
0:4:1
-1:-1
0:3:1
-1:-1
0:1:1
-1:-1
4:9:1
1:1
0:13:2
-1:-1
1:6:1
-1:-1
0:6:1
-1:1
0:6:1
-1:-1
0:3:1
-1:-1
1:2:1
-1:-1
0:2:1
-1:1
0:6:1
-1:1
0:6:1
-1:-1
1:3:1
-1:-1
0:6:1
-1:-1
0:34:1
-1:1
0:13:1
-1:1
0:18:1
-1:1
0:16:1
-1:-1
0:21:1
-1:1
2:24:1
0:-1
1:21:1
-1:-1
0:20:1
-1:-1
0:11:1
-1:1
0:3:1
-1:-1
0:3:1
-1:-1
0:3:1
-1:-1
0:3:1
-1:-1
0:5:1
-1:-1
0:3:1
-1:-1
0:6:1
-1:1
0:11:1
-1:1
0:5:1
-1:-1
0:2:1
-1:-1
2:0:1
0:-1
1:3:1
-1:-1
0:4:1
-1:-1
0:3:1
-1:1
0:4:1
-1:-1
0:1:1
-1:-1
0:8:1
-1:-1
0:3:1
-1:1
0:2:1
-1:1
0:4:1
-1:-1
0:5:1
-1:-1
0:1:1
-1:-1
0:3:1
-1:-1
0:4:1
-1:-1
0:9:1
-1:-1
1:8:1
-1:1
0:3:1
-1:-1
0:10:1
-1:1
0:3:1
-1:1
2:29:1
0:1
1:14:2
-1:-1
0:15:1
-1:-1
0:20:1
-1:1
0:23:1
-1:1
2:2:1
0:1
0:6:2
-1:-1
0:9:1
-1:1
0:4:1
-1:1
0:1:1
-1:-1
0:4:1
-1:-1
0:1:1
-1:-1
0:4:1
-1:-1
1:6:1
-1:-1
0:12:1
-1:-1
0:8:1
-1:1
0:2:1
-1:-1
0:5:1
-1:-1
0:5:1
-1:-1
0:32:1
-1:1
0:13:1
-1:-1
1:23:1
-1:1
0:12:1
-1:-1
0:16:1
-1:1
0:18:1
-1:1
0:22:1
-1:1
0:19:1
-1:1
2:22:1
0:1
2:17:2
0:0
3:16:2
0:-1
0:14:2
-1:-1
0:17:1
-1:1
0:17:1
-1:-1
0:17:1
-1:-1
1:26:1
-1:1
0:17:1
-1:-1
4:28:1
1:1
0:19:2
-1:-1
0:19:1
-1:1
0:20:1
-1:1
0:16:1
-1:1
0:22:1
-1:1
0:16:1
-1:-1
1:19:1
-1:1
0:9:1
-1:-1
1:5:1
-1:-1
0:5:1
-1:-1
0:2:1
-1:-1
2:2:1
0:1
0:0:2
-1:-1
0:9:1
-1:-1
0:5:1
-1:-1
0:6:1
-1:-1
0:12:1
-1:-1
0:1:1
-1:-1
2:1:1
0:-1
0:2:1
-1:-1
2:3:1
0:1
0:4:2
-1:-1
0:4:1
-1:-1
0:2:1
-1:-1
0:2:1
-1:1
0:2:1
-1:-1
0:8:1
-1:1
1:4:1
-1:1
0:2:1
-1:-1
0:8:1
-1:-1
1:5:1
-1:-1
0:3:1
-1:-1
0:8:1
-1:-1
3:13:1
0:-1
0:7:1
-1:-1
0:3:1
-1:1
0:1:1
-1:-1
0:2:1
-1:1
1:15:1
-1:1
2:10:1
0:-1
0:14:1
-1:1
2:15:1
0:-1
1:12:1
-1:1
0:8:1
-1:-1
0:11:1
-1:-1
2:15:1
0:-1
1:12:1
-1:-1
0:14:1
-1:-1
0:20:1
-1:-1
0:8:1
-1:1
0:0:1
-1:-1
1:1:1
-1:-1
0:3:1
-1:-1
2:4:1
0:-1
0:2:1
-1:1
0:11:1
-1:-1
0:2:1
-1:-1
0:8:1
-1:1
0:4:1
-1:1
0:5:1
-1:-1
0:2:1
-1:-1
0:3:1
-1:-1
0:0:1
-1:-1
0:6:1
-1:-1
0:1:1
-1:1
0:3:1
-1:-1
0:1:1
-1:-1
0:5:1
-1:-1
0:2:1
-1:1
0:7:1
-1:1
0:8:1
-1:-1
0:9:1
-1:-1
0:5:1
-1:-1
0:1:1
-1:-1
0:0:1
-1:-1
0:9:1
-1:-1
0:9:1
-1:-1
0:4:1
-1:-1
1:8:1
-1:-1
0:2:1
-1:1
0:5:1
-1:-1
1:3:1
-1:1
0:4:1
-1:-1
0:2:1
-1:-1
0:7:1
-1:-1
0:11:1
-1:1
0:10:1
-1:-1
2:6:1
0:1
0:2:2
-1:0
0:38:1
-1:1
0:17:1
-1:1
0:23:1
-1:1
0:24:1
-1:1
2:40:1
0:1
0:38:2
-1:0
0:33:1
-1:1
0:31:1
-1:-1
4:35:1
1:1
0:25:2
-1:0
3:29:1
0:1
1:34:2
-1:-1
1:25:1
-1:-1
0:43:1
-1:1
2:24:1
0:1
0:30:2
-1:-1
2:32:1
0:1
0:40:2
-1:-1
1:36:1
-1:-1
1:47:1
-1:1
0:29:1
-1:-1
2:24:1
0:-1
0:36:1
-1:-1
0:33:1
-1:-1
2:27:1
0:-1
0:33:1
-1:-1
0:21:1
-1:1
2:29:1
0:-1
0:55:1
-1:-1
3:17:1
0:-1
2:26:1
0:-1
2:22:1
0:-1
0:10:1
-1:1
0:3:1
-1:-1
3:5:1
0:-1
0:6:1
-1:-1
0:4:1
-1:-1
0:2:1
-1:-1
0:10:1
-1:1
0:15:1
-1:-1
0:9:1
-1:1
0:10:1
-1:-1
0:15:1
-1:-1
1:23:1
-1:1
2:15:1
0:-1
1:27:1
-1:1
2:25:1
0:1
0:36:2
-1:-1
1:39:1
-1:-1
0:26:1
-1:1
0:30:1
-1:1
2:10:1
0:-1
0:16:1
-1:-1
0:7:1
-1:-1
2:23:1
0:1
0:9:2
-1:-1
0:6:1
-1:-1
0:8:1
-1:-1
0:8:1
-1:1
0:10:1
-1:-1
0:1:1
-1:-1
0:6:1
-1:-1
0:2:1
-1:-1
0:1:1
-1:-1
0:3:1
-1:-1
0:2:1
-1:1
0:8:1
-1:-1
0:6:1
-1:-1
0:20:1
-1:-1
0:15:1
-1:1
4:17:1
1:1
0:22:2
-1:-1
1:29:1
-1:-1
0:35:1
-1:1
1:38:1
-1:1
0:32:1
-1:1
0:24:1
-1:-1
1:42:1
-1:1
2:35:1
0:-1
0:33:1
-1:-1
0:34:1
-1:1
0:36:1
-1:-1
0:48:1
-1:1
0:25:1
-1:-1
0:33:1
-1:1
0:17:1
-1:-1
0:9:1
-1:-1
1:8:1
-1:-1
0:12:1
-1:-1
1:5:1
-1:-1
1:10:1
-1:-1
0:2:1
-1:-1
0:1:1
-1:1
0:0:1
-1:-1
0:4:1
-1:-1
0:5:1
-1:1
0:5:1
-1:1
0:3:1
-1:1
0:5:1
-1:-1
0:3:1
-1:-1
0:7:1
-1:-1
0:2:1
-1:1
0:1:1
-1:-1
0:7:1
-1:-1
0:10:1
-1:-1
1:11:1
-1:1
0:9:1
-1:-1
0:7:1
-1:-1
0:7:1
-1:-1
0:10:1
-1:-1
0:13:1
-1:-1
0:9:1
-1:1
0:10:1
-1:1
0:11:1
-1:-1
0:11:1
-1:-1
0:6:1
-1:-1
0:11:1
-1:1
0:16:1
-1:-1
0:15:1
-1:-1
1:15:1
-1:-1
0:13:1
-1:1
0:11:1
-1:-1
0:18:1
-1:-1
0:19:1
-1:-1
0:3:1
-1:1
0:5:1
-1:-1
0:7:1
-1:-1
0:13:1
-1:-1
0:4:1
-1:-1
0:9:1
-1:-1
0:16:1
-1:-1
3:9:1
0:-1
0:12:1
-1:-1
0:13:1
-1:-1
3:5:1
0:-1
0:6:1
-1:-1
0:9:1
-1:-1
0:5:1
-1:1
2:15:1
0:1
2:11:2
0:-1
0:14:2
-1:-1
0:9:1
-1:-1
0:2:1
-1:1
0:3:1
-1:-1
2:4:1
0:-1
0:3:1
-1:-1
0:2:1
-1:-1
3:6:1
0:-1
2:9:1
0:-1
Finished CPU 0 instructions: 10000000 cycles: 37035307 cumulative IPC: 0.270013 (Simulation time: 0 hr 0 min 33 sec) 

CPU 0 Branch Prediction Accuracy: 90.2713% MPKI: 19.1033 Average ROB Occupancy at Mispredict: 50.7121

ChampSim completed all CPUs

Region of Interest Statistics

CPU 0 cumulative IPC: 0.270013 instructions: 10000000 cycles: 37035307
L1D TOTAL     ACCESS:    6401166  HIT:    5733749  MISS:     667417
L1D LOAD      ACCESS:    2736465  HIT:    2402142  MISS:     334323
L1D RFO       ACCESS:    1077014  HIT:    1039021  MISS:      37993
L1D PREFETCH  ACCESS:    2587687  HIT:    2292586  MISS:     295101
L1D WRITEBACK ACCESS:          0  HIT:          0  MISS:          0
L1D PREFETCH  REQUESTED:    2980135  ISSUED:    2954882  USEFUL:      59249  USELESS:     267744
L1D AVERAGE MISS LATENCY: 521889 cycles
L1I TOTAL     ACCESS:    2006200  HIT:    2006200  MISS:          0
L1I LOAD      ACCESS:    2006200  HIT:    2006200  MISS:          0
L1I RFO       ACCESS:          0  HIT:          0  MISS:          0
L1I PREFETCH  ACCESS:          0  HIT:          0  MISS:          0
L1I WRITEBACK ACCESS:          0  HIT:          0  MISS:          0
L1I PREFETCH  REQUESTED:          0  ISSUED:          0  USEFUL:          0  USELESS:          0
L1I AVERAGE MISS LATENCY: -nan cycles
L2C TOTAL     ACCESS:    1033488  HIT:     430962  MISS:     602526
L2C LOAD      ACCESS:     316218  HIT:     117800  MISS:     198418
L2C RFO       ACCESS:      37902  HIT:      10611  MISS:      27291
L2C PREFETCH  ACCESS:     623750  HIT:     246976  MISS:     376774
L2C WRITEBACK ACCESS:      55618  HIT:      55575  MISS:         43
L2C PREFETCH  REQUESTED:     676123  ISSUED:     665475  USEFUL:      38134  USELESS:     370336
L2C AVERAGE MISS LATENCY: 109.133 cycles
LLC TOTAL     ACCESS:     640558  HIT:     397805  MISS:     242753
LLC LOAD      ACCESS:     195951  HIT:     108328  MISS:      87623
LLC RFO       ACCESS:      27289  HIT:      26170  MISS:       1119
LLC PREFETCH  ACCESS:     379242  HIT:     225288  MISS:     153954
LLC WRITEBACK ACCESS:      38076  HIT:      38019  MISS:         57
LLC PREFETCH  REQUESTED:          0  ISSUED:          0  USEFUL:      16944  USELESS:     144376
LLC AVERAGE MISS LATENCY: 196.555 cycles
Major fault: 0 Minor fault: 3007
CPU 0 L2C next line prefetcher final stats

DRAM Statistics
 CHANNEL 0
 RQ ROW_BUFFER_HIT:      24447  ROW_BUFFER_MISS:     218234
 DBUS_CONGESTED:      80519
 WQ ROW_BUFFER_HIT:        890  ROW_BUFFER_MISS:       2470  FULL:          0

 AVG_CONGESTED_CYCLE: 4
