
*** ChampSim Multicore Out-of-Order Simulator ***

Warmup Instructions: 1000000
Simulation Instructions: 10000000
Number of CPUs: 1
LLC sets: 2048
LLC ways: 16
Off-chip DRAM Size: 4096 MB Channels: 1 Width: 64-bit Data Rate: 3200 MT/s

CPU 0 runs /home/light/7th-Sem/cs622/project/ChampSim/dpc3_traces/607.cactuBSSN_s-2421B.champsimtrace.xz
2:32:4
0:-1
0:81:4
-1:-1
2:78:3
0:-1
6:73:3
1:-1
1:118:3
-1:0
0:306:2
-1:-1
4:189:1
1:-1
2:134:1
0:-1
1:329:1
-1:-1
6:158:1
1:1
0:134:2
-1:0
1:315:1
-1:-1
6:179:1
1:-1
1:135:1
-1:1
1:332:1
-1:-1
6:172:1
1:-1
0:136:1
-1:-1
4:356:1
1:-1
6:187:1
1:-1
0:143:1
-1:1
0:331:1
-1:1
4:184:1
1:1
0:130:2
-1:0
1:366:1
-1:1
6:170:1
1:-1
0:143:1
-1:1
1:359:1
-1:-1
6:175:1
1:1
1:126:2
-1:0
2:339:1
0:-1
0:163:1
-1:1
0:163:1
-1:1
0:337:1
-1:-1
0:126:1
-1:1
1:189:1
-1:1
2:355:1
0:-1
0:107:1
-1:1
0:180:1
-1:1
1:327:1
-1:-1
7:114:1
1:-1
2:200:1
0:-1
0:377:1
-1:1
8:75:1
2:-1
2:170:1
0:1
0:376:2
-1:-1
8:93:1
2:1
0:182:3
-1:0
0:377:2
-1:-1
7:93:1
1:-1
1:186:1
-1:-1
0:362:1
-1:-1
7:105:1
1:-1
0:160:1
-1:-1
2:368:1
0:-1
7:78:1
1:-1
0:174:1
-1:-1
1:356:1
-1:-1
7:96:1
1:-1
0:181:1
-1:-1
1:335:1
-1:-1
7:99:1
1:-1
1:169:1
-1:-1
1:360:1
-1:-1
0:78:1
-1:-1
2:221:1
0:1
6:359:2
1:-1
0:77:2
-1:-1
1:236:1
-1:1
7:353:1
1:-1
6:81:1
1:1
1:232:2
-1:-1
0:351:1
-1:-1
8:81:1
2:1
1:307:3
-1:0
7:311:2
1:-1
11:76:2
2:0
1:302:3
-1:0
0:277:2
-1:-1
0:72:1
-1:1
0:288:1
-1:1
0:270:1
-1:-1
4:77:1
1:1
1:305:2
-1:1
7:273:2
1:-1
12:67:2
2:0
0:288:3
-1:-1
6:262:2
1:0
5:72:3
1:-1
3:308:3
0:0
7:269:3
1:-1
0:79:3
-1:0
1:298:2
-1:-1
4:269:1
1:-1
0:83:1
-1:1
0:352:1
-1:-1
2:267:1
0:-1
0:84:1
-1:1
0:372:1
-1:1
1:238:1
-1:1
2:75:1
0:1
0:332:2
-1:1
0:228:2
-1:-1
0:81:1
-1:1
2:319:1
0:-1
6:217:1
1:-1
4:73:1
1:-1
4:345:1
1:1
1:226:2
-1:-1
3:75:1
0:1
0:322:2
-1:1
3:227:2
0:0
2:79:2
0:1
0:348:3
-1:-1
0:222:2
-1:1
0:109:2
-1:1
3:349:2
0:-1
6:218:2
1:1
4:73:3
1:-1
0:348:3
-1:0
0:257:2
-1:0
0:88:1
-1:1
1:368:1
-1:-1
0:223:1
-1:1
0:109:1
-1:1
0:340:1
-1:-1
0:191:1
-1:-1
1:106:1
-1:1
0:324:1
-1:1
4:206:1
1:-1
0:124:1
-1:-1
2:345:1
0:1
4:186:2
1:-1
1:138:2
-1:0
1:309:1
-1:-1
4:172:1
1:-1
1:136:1
-1:1
3:359:1
0:-1
4:179:1
1:-1
0:142:1
-1:1
0:330:1
-1:-1
4:176:1
1:-1
0:121:1
-1:1
0:365:1
-1:-1
6:183:1
1:-1
2:151:1
0:-1
0:368:1
-1:-1
4:170:1
1:-1
0:143:1
-1:1
0:331:1
-1:1
5:159:1
1:-1
2:140:1
0:-1
2:342:1
0:-1
0:160:1
-1:-1
0:148:1
-1:1
0:358:1
-1:1
7:143:1
1:1
1:164:2
-1:0
1:322:1
-1:-1
0:140:1
-1:-1
1:150:1
-1:-1
0:356:1
-1:-1
0:158:1
-1:1
0:159:1
-1:-1
0:363:1
-1:1
7:126:1
1:1
0:176:2
-1:0
1:356:1
-1:-1
7:143:1
1:-1
1:186:1
-1:-1
0:358:1
-1:-1
7:113:1
1:-1
0:207:1
-1:-1
0:333:1
-1:-1
7:103:1
1:-1
0:190:1
-1:-1
0:353:1
-1:1
8:82:1
2:-1
0:199:1
-1:1
2:359:1
0:1
10:76:2
2:-1
0:172:2
-1:-1
3:356:1
0:1
7:92:2
1:0
0:193:3
-1:0
0:374:2
-1:0
7:94:1
1:1
0:193:2
-1:0
0:354:1
-1:-1
7:100:1
1:-1
0:176:1
-1:-1
0:410:1
-1:-1
7:79:1
1:-1
1:183:1
-1:-1
0:370:1
-1:-1
7:114:1
1:-1
0:191:1
-1:-1
0:340:1
-1:-1
7:90:1
1:-1
0:182:1
-1:-1
0:329:1
-1:1
7:108:1
1:-1
3:188:1
0:-1
0:368:1
-1:-1
9:69:1
2:-1
0:170:1
-1:1
0:329:1
-1:-1
7:99:1
1:1
0:201:2
-1:0
0:389:1
-1:1
10:71:1
2:-1
1:222:1
-1:1
0:375:1
-1:-1
10:71:1
2:-1
2:217:1
0:-1
0:371:1
-1:-1
0:75:1
-1:-1
1:209:1
-1:1
1:379:1
-1:-1
0:73:1
-1:1
0:222:1
-1:1
4:322:1
1:-1
0:69:1
-1:1
0:213:1
-1:1
6:332:1
1:-1
8:69:1
2:-1
3:225:1
0:1
1:315:2
-1:-1
0:72:1
-1:-1
1:220:1
-1:1
7:300:1
1:-1
3:73:1
0:1
0:239:2
-1:1
7:333:2
1:1
7:79:3
1:0
0:275:4
-1:0
0:301:3
-1:0
7:77:2
1:1
0:264:3
-1:0
3:314:2
0:0
7:75:2
1:1
1:276:3
-1:0
5:318:2
1:-1
8:76:2
2:0
1:269:3
-1:0
0:299:2
-1:-1
8:78:1
2:1
1:244:3
-1:0
7:301:2
1:-1
10:71:2
2:0
0:249:3
-1:-1
0:289:2
-1:-1
9:84:1
2:1
1:299:3
-1:0
0:265:2
-1:-1
9:74:1
2:1
1:319:3
-1:-1
0:300:2
-1:-1
0:77:1
-1:1
1:321:1
-1:-1
6:261:1
1:1
0:75:2
-1:0
3:361:1
0:1
0:238:2
-1:-1
0:81:1
-1:-1
1:373:1
-1:1
0:254:1
-1:-1
0:93:1
-1:1
6:355:1
1:1
0:204:2
-1:-1
0:108:1
-1:1
2:323:1
0:1
2:224:2
0:-1
1:96:2
-1:0
1:335:1
-1:-1
0:207:1
-1:-1
1:114:1
-1:-1
2:317:1
0:-1
1:197:1
-1:-1
2:118:1
0:-1
3:344:1
0:-1
4:194:1
1:1
2:140:2
0:0
0:354:2
-1:-1
4:175:1
1:1
0:143:2
-1:0
1:361:1
-1:1
4:163:1
1:-1
1:138:1
-1:1
1:369:1
-1:1
1:186:1
-1:-1
1:137:1
-1:1
3:322:1
0:-1
4:180:1
1:-1
1:139:1
-1:1
1:330:1
-1:-1
4:182:1
1:-1
0:131:1
-1:1
2:338:1
0:1
4:166:2
1:-1
0:132:2
-1:0
0:326:1
-1:-1
4:171:1
1:-1
0:139:1
-1:1
3:344:1
0:-1
6:199:1
1:-1
1:158:1
-1:1
4:344:1
1:-1
6:154:1
1:-1
2:189:1
0:1
0:371:2
-1:-1
4:128:1
1:1
1:178:2
-1:0
0:351:1
-1:-1
6:147:1
1:1
1:175:2
-1:0
1:325:1
-1:-1
0:142:1
-1:-1
1:178:1
-1:-1
1:351:1
-1:1
4:124:1
1:-1
1:167:1
-1:-1
1:340:1
-1:-1
6:130:1
1:-1
0:167:1
-1:1
3:332:1
0:-1
0:124:1
-1:1
1:177:1
-1:1
0:369:1
-1:-1
2:127:1
0:1
0:155:2
-1:1
1:361:2
-1:1
0:144:2
-1:-1
0:172:1
-1:-1
0:371:1
-1:1
0:123:1
-1:1
0:167:1
-1:-1
0:328:1
-1:-1
0:144:1
-1:1
2:172:1
0:1
1:348:2
-1:-1
0:121:1
-1:1
0:175:1
-1:-1
2:347:1
0:1
1:110:2
-1:1
0:190:2
-1:1
0:348:2
-1:0
7:107:1
1:1
0:198:2
-1:0
1:359:1
-1:-1
10:71:1
2:-1
1:187:1
-1:-1
2:414:1
0:-1
7:92:1
1:-1
1:183:1
-1:-1
3:365:1
0:-1
7:108:1
1:1
0:204:2
-1:0
0:385:1
-1:-1
7:92:1
1:-1
0:185:1
-1:-1
2:378:1
0:-1
10:84:1
2:-1
0:177:1
-1:-1
0:351:1
-1:-1
8:97:1
2:1
0:205:3
-1:0
0:330:2
-1:0
7:107:1
1:-1
0:194:1
-1:-1
1:373:1
-1:-1
10:73:1
2:1
0:219:3
-1:-1
6:340:2
1:0
0:68:3
-1:-1
1:256:2
-1:1
7:342:2
1:1
7:74:3
1:0
2:274:4
0:0
7:317:4
1:0
9:67:5
2:0
1:303:6
-1:-1
8:307:5
2:-1
10:68:5
2:-1
2:303:5
0:-1
0:287:5
-1:-1
0:70:4
-1:-1
1:280:3
-1:1
0:285:3
-1:-1
0:69:2
-1:-1
0:288:1
-1:1
6:297:1
1:-1
10:75:1
2:-1
1:272:1
-1:1
0:280:1
-1:1
1:73:1
-1:1
1:279:1
-1:1
0:265:1
-1:-1
0:71:1
-1:1
0:284:1
-1:1
3:264:1
0:-1
5:70:1
1:-1
0:292:1
-1:1
4:259:1
1:1
4:78:2
1:0
1:358:3
-1:0
0:232:2
-1:-1
0:73:1
-1:1
0:343:1
-1:1
4:247:1
1:-1
3:82:1
0:1
0:342:2
-1:-1
4:242:1
1:1
4:82:2
1:0
1:355:3
-1:0
4:248:2
1:-1
3:77:2
0:-1
1:315:2
-1:-1
0:241:1
-1:-1
0:79:1
-1:1
1:354:1
-1:-1
1:211:1
-1:-1
0:103:1
-1:-1
1:334:1
-1:1
0:210:1
-1:-1
0:107:1
-1:1
5:327:1
1:-1
0:209:1
-1:1
0:120:1
-1:-1
0:372:1
-1:-1
3:190:1
0:-1
2:124:1
0:-1
0:341:1
-1:-1
4:193:1
1:-1
0:131:1
-1:1
3:376:1
0:1
0:174:2
-1:0
0:166:1
-1:-1
0:388:1
-1:1
6:156:1
1:-1
0:176:1
-1:1
1:323:1
-1:-1
6:146:1
1:-1
0:149:1
-1:1
1:333:1
-1:-1
6:142:1
1:-1
0:167:1
-1:1
0:355:1
-1:1
0:129:1
-1:1
0:172:1
-1:1
0:309:1
-1:-1
7:129:1
1:1
1:191:2
-1:0
0:369:1
-1:1
7:100:1
1:-1
0:180:1
-1:-1
0:355:1
-1:-1
1:114:1
-1:-1
0:209:1
-1:1
0:383:1
-1:-1
7:123:1
1:1
1:214:2
-1:0
0:384:1
-1:-1
8:93:1
2:-1
0:184:1
-1:1
2:381:1
0:1
7:97:2
1:-1
0:179:2
-1:0
3:336:1
0:-1
7:104:1
1:-1
1:194:1
-1:-1
2:346:1
0:-1
7:119:1
1:-1
0:179:1
-1:-1
0:362:1
-1:1
10:84:1
2:-1
1:196:1
-1:1
0:380:1
-1:-1
10:94:1
2:-1
1:219:1
-1:1
1:374:1
-1:1
10:87:1
2:-1
0:212:1
-1:-1
0:387:1
-1:-1
10:80:1
2:-1
0:255:1
-1:1
2:349:1
0:-1
0:72:1
-1:-1
0:245:1
-1:1
0:311:1
-1:1
7:77:1
1:1
3:270:2
0:0
6:301:2
1:0
9:67:3
2:0
0:289:4
-1:0
6:290:3
1:0
6:69:4
1:0
1:288:5
-1:-1
1:265:4
-1:-1
10:66:3
2:-1
0:294:3
-1:0
4:323:2
1:-1
0:75:2
-1:0
1:316:1
-1:-1
7:268:1
1:-1
3:78:1
0:1
2:343:2
0:-1
0:248:2
-1:-1
0:80:1
-1:1
0:370:1
-1:-1
2:222:1
0:1
0:102:2
-1:0
2:321:1
0:-1
0:194:1
-1:-1
0:119:1
-1:1
0:325:1
-1:-1
1:192:1
-1:-1
1:130:1
-1:-1
4:335:1
1:-1
4:179:1
1:-1
0:138:1
-1:1
1:328:1
-1:1
4:181:1
1:-1
0:130:1
-1:1
0:352:1
-1:1
3:172:1
0:1
0:127:2
-1:-1
0:347:1
-1:-1
2:184:1
0:-1
0:124:1
-1:1
1:362:1
-1:-1
4:179:1
1:1
0:136:2
-1:0
1:342:1
-1:-1
1:167:1
-1:-1
0:152:1
-1:1
2:315:1
0:-1
4:170:1
1:-1
0:126:1
-1:1
0:331:1
-1:1
0:160:1
-1:1
0:164:1
-1:-1

Warmup complete CPU 0 instructions: 1000003 cycles: 548238 (Simulation time: 0 hr 0 min 3 sec) 

2:302:1
0:-1
8:211:1
2:-1
0:33:1
-1:-1
0:85:1
-1:-1
0:244:1
-1:-1
0:308:1
-1:-1
3:73:1
0:-1
7:42:1
1:-1
0:152:1
-1:-1
3:162:1
0:1
0:186:2
-1:-1
5:184:1
1:1
0:45:2
-1:0
0:59:1
-1:-1
1:306:1
-1:-1
0:306:1
-1:1
1:55:1
-1:-1
10:42:1
2:-1
2:193:1
0:-1
4:344:1
1:-1
0:139:1
-1:-1
1:54:1
-1:-1
5:45:1
1:-1
0:24:1
-1:-1
1:187:1
-1:1
0:296:1
-1:-1
9:202:1
2:-1
7:39:1
1:-1
0:89:1
-1:1
0:264:1
-1:-1
4:263:1
1:1
0:95:2
-1:1
7:47:2
1:1
1:169:3
-1:0
1:336:2
-1:-1
0:176:1
-1:-1
7:45:1
1:1
1:122:2
-1:0
0:286:1
-1:-1
0:284:1
-1:1
6:50:1
1:-1
0:45:1
-1:-1
1:248:1
-1:-1
1:264:1
-1:-1
4:141:1
1:-1
0:46:1
-1:1
1:153:1
-1:1
2:319:1
0:-1
7:250:1
1:-1
7:38:1
1:-1
0:68:1
-1:1
2:325:1
0:1
0:306:2
-1:-1
4:60:1
1:-1
9:39:1
2:-1
1:229:1
-1:1
0:349:1
-1:-1
4:142:1
1:1
0:49:2
-1:0
0:37:1
-1:1
0:240:1
-1:1
0:296:1
-1:1
4:162:1
1:1
0:47:2
-1:-1
0:154:1
-1:1
1:343:1
-1:1
0:203:1
-1:-1
7:50:1
1:-1
0:104:1
-1:-1
2:319:1
0:1
4:258:2
1:0
3:51:3
0:0
0:54:3
-1:0
0:305:2
-1:0
0:350:1
-1:1
0:53:1
-1:-1
7:39:1
1:-1
0:205:1
-1:-1
0:280:1
-1:1
0:193:1
-1:1
7:45:1
1:-1
0:110:1
-1:-1
1:332:1
-1:1
7:272:1
1:1
0:52:2
-1:-1
3:50:1
0:-1
0:259:1
-1:-1
1:304:1
-1:1
1:131:1
-1:-1
0:48:1
-1:1
0:168:1
-1:1
2:331:1
0:1
0:207:2
-1:-1
8:46:1
2:-1
0:48:1
-1:1
0:223:1
-1:1
3:272:1
0:-1
0:194:1
-1:-1
7:45:1
1:-1
0:99:1
-1:-1
1:300:1
-1:1
7:279:1
1:-1
4:57:1
1:1
0:45:2
-1:-1
1:238:1
-1:-1
0:297:1
-1:-1
3:130:1
0:1
8:42:2
2:1
3:170:4
0:0
4:292:4
1:-1
1:250:4
-1:0
2:40:3
0:0
1:83:3
-1:0
2:291:2
0:-1
2:280:2
0:-1
0:69:2
-1:-1
8:40:1
2:-1
1:217:1
-1:1
0:312:1
-1:-1
4:176:1
1:1
9:46:2
2:0
0:127:3
-1:0
0:326:2
-1:-1
0:230:1
-1:1
5:46:1
1:-1
0:90:1
-1:1
0:311:1
-1:-1
1:320:1
-1:-1
0:53:1
-1:-1
8:36:1
2:-1
0:27:1
-1:1
0:251:1
-1:1
0:272:1
-1:1
2:173:1
0:-1
7:42:1
1:1
0:119:2
-1:0
0:299:1
-1:-1
0:251:1
-1:1
1:55:1
-1:1
2:86:1
0:1
1:284:2
-1:1
0:298:2
-1:-1
1:54:1
-1:-1
7:36:1
1:1
3:230:2
0:0
2:299:2
0:1
3:178:3
0:-1
7:44:3
1:0
1:129:4
-1:0
2:273:3
0:-1
6:285:3
1:-1
6:52:3
1:0
0:44:4
-1:-1
1:257:3
-1:-1
0:279:2
-1:-1
6:155:1
1:-1
9:46:1
2:1
2:131:3
0:0
0:328:3
-1:-1
0:246:2
-1:1
6:39:2
1:0
1:93:3
-1:0
0:329:2
-1:1
1:303:2
-1:0
6:54:1
1:1
3:41:2
0:-1
0:31:2
-1:1
0:256:2
-1:-1
2:229:1
0:1
6:162:2
1:-1
9:45:2
2:0
1:128:3
-1:-1
0:303:2
-1:-1
1:218:1
-1:1
0:51:1
-1:1
3:45:1
0:-1
2:248:1
0:-1
0:342:1
-1:-1
1:81:1
-1:-1
7:43:1
1:-1
0:224:1
-1:-1
0:283:1
-1:1
3:193:1
0:1
6:43:2
1:0
0:85:3
-1:-1
2:304:2
0:0
4:281:2
1:-1
1:52:2
-1:-1
9:40:1
2:1
1:207:3
-1:0
1:319:2
-1:-1
5:183:1
1:1
9:50:2
2:0
0:155:3
-1:0
0:305:2
-1:0
1:252:1
-1:1
0:38:1
-1:-1
0:88:1
-1:-1
0:323:1
-1:-1
4:323:1
1:1
4:47:2
1:0
9:38:3
2:0
0:29:4
-1:0
3:240:3
0:0
0:265:3
-1:-1
6:164:2
1:-1
9:47:2
2:0
0:128:3
-1:0
0:317:2
-1:0
0:209:1
-1:1
0:38:1
-1:1
2:93:1
0:1
0:263:2
-1:-1
0:332:1
-1:1
1:47:1
-1:-1
7:38:1
1:1
3:220:2
0:0
1:333:2
-1:-1
6:153:1
1:-1
8:45:1
2:1
2:129:3
0:-1
1:283:3
-1:-1
7:256:2
1:-1
6:52:2
1:0
0:47:3
-1:-1
2:245:2
0:-1
1:308:2
-1:-1
4:126:1
1:-1
0:49:1
-1:1
0:163:1
-1:-1
0:308:1
-1:1
7:265:1
1:1
0:38:2
-1:1
0:79:2
-1:0
0:332:1
-1:-1
0:332:1
-1:1
0:46:1
-1:-1
8:39:1
2:-1
0:26:1
-1:1
1:250:1
-1:1
1:241:1
-1:-1
5:168:1
1:-1
7:46:1
1:1
0:127:2
-1:0
0:338:1
-1:1
0:231:1
-1:1
0:34:1
-1:1
0:57:1
-1:-1
0:279:1
-1:1
1:332:1
-1:-1
2:67:1
0:1
7:43:2
1:0
0:208:3
-1:0
0:315:2
-1:0
5:169:1
1:1
6:38:2
1:-1
0:104:2
-1:0
1:253:1
-1:-1
4:287:1
1:-1
4:47:1
1:-1
0:40:1
-1:1
0:233:1
-1:1
0:310:1
-1:-1
3:140:1
0:1
0:47:2
-1:0
2:168:1
0:1
0:291:2
-1:-1
8:253:1
2:1
0:43:3
-1:0
1:80:2
-1:-1
2:343:1
0:1
0:246:2
-1:-1
6:64:1
1:-1
5:41:1
1:1
0:57:2
-1:0
1:246:1
-1:1
0:279:1
-1:-1
3:175:1
0:-1
0:47:1
-1:1
0:129:1
-1:1
0:312:1
-1:1
0:239:1
-1:1
0:45:1
-1:1
2:89:1
0:-1
2:305:1
0:-1
0:297:1
-1:-1
6:49:1
1:1
4:43:2
1:-1
1:253:2
-1:1
0:283:2
-1:-1
3:133:1
0:1
0:45:2
-1:0
3:129:1
0:1
0:266:2
-1:-1
6:255:1
1:1
4:49:2
1:-1
8:36:2
2:0
0:199:3
-1:0
5:327:2
1:0
3:157:3
0:-1
0:46:3
-1:0
0:148:2
-1:0
0:295:1
-1:1
8:275:1
2:1
3:45:3
0:0
0:61:3
-1:0
0:327:2
-1:0
1:294:1
-1:1
2:85:1
0:-1
7:48:1
1:1
0:27:2
-1:0
0:225:1
-1:1
1:263:1
-1:-1
0:182:1
-1:-1
7:42:1
1:1
1:112:2
-1:0
0:265:1
-1:1
1:309:1
-1:1
3:58:1
0:-1
3:91:1
0:1
3:301:2
0:-1
5:276:2
1:-1
4:52:2
1:-1
7:44:2
1:-1
0:218:2
-1:-1
0:294:1
-1:1
3:176:1
0:1
6:47:2
1:0
0:127:3
-1:0
4:301:2
1:0
0:217:3
-1:0
4:53:2
1:1
3:95:3
0:0
1:292:3
-1:-1
6:317:2
1:-1
4:49:2
1:-1
7:40:2
1:0
0:241:3
-1:0
2:305:2
0:-1
4:171:2
1:-1
7:47:2
1:0
0:143:3
-1:0
2:370:2
0:-1
7:214:2
1:-1
3:47:2
0:0
0:55:2
-1:0
2:229:1
0:1
2:264:2
0:-1
0:194:2
-1:0
7:44:1
1:-1
2:116:1
0:-1
0:271:1
-1:-1
0:305:1
-1:-1
3:56:1
0:1
0:85:2
-1:0
0:311:1
-1:1
0:280:1
-1:-1
3:54:1
0:1
0:64:2
-1:0
0:298:1
-1:1
2:319:1
0:1
0:53:2
-1:-1
7:43:1
1:-1
1:180:1
-1:1
0:284:1
-1:-1
1:214:1
-1:-1
3:38:1
0:1
0:91:2
-1:0
2:316:1
0:-1
4:311:1
1:-1
0:55:1
-1:1
4:51:1
1:1
2:292:2
0:1
0:339:3
-1:0
3:75:2
0:-1
3:40:2
0:-1
1:158:2
-1:1
0:343:2
-1:-1
3:236:1
0:-1
3:38:1
0:-1
0:54:1
-1:1
0:217:1
-1:1
0:257:1
-1:-1
3:199:1
0:-1
8:43:1
2:1
2:109:3
0:0
1:263:3
-1:-1
6:298:2
1:-1
2:57:2
0:0
7:36:2
1:-1
0:233:2
-1:-1
1:277:1
-1:1
4:154:1
1:-1
8:46:1
2:1
0:142:3
-1:0
0:302:2
-1:-1
1:232:1
-1:1
3:40:1
0:1
0:64:2
-1:0
0:258:1
-1:-1
0:293:1
-1:1
5:100:1
1:1
0:41:2
-1:0
2:181:1
0:1
0:316:2
-1:-1
3:210:1
0:1
7:44:2
1:0
0:101:3
-1:0
0:333:2
-1:0
7:262:1
1:1
6:50:2
1:-1
0:48:2
-1:-1
0:236:1
-1:-1
0:328:1
-1:-1
0:128:1
-1:1
8:45:1
2:1
0:36:3
-1:0
1:234:2
-1:0
5:284:1
1:-1
5:143:1
1:-1
8:45:1
2:1
0:127:3
-1:-1
0:302:2
-1:0
4:259:1
1:-1
0:37:1
-1:1
0:62:1
-1:-1
0:302:1
-1:-1
1:289:1
-1:1
1:55:1
-1:1
8:43:1
2:1
5:198:3
1:0
1:305:4
-1:0
5:171:3
1:-1
8:46:3
2:0
1:144:4
-1:0
0:266:3
-1:-1
0:273:2
-1:0
0:51:1
-1:1
1:82:1
-1:-1
2:325:1
0:-1
6:295:1
1:-1
0:51:1
-1:-1
8:39:1
2:-1
0:209:1
-1:-1
2:311:1
0:1
3:173:2
0:-1
7:43:2
1:0
1:122:3
-1:0
1:303:2
-1:-1
0:308:1
-1:-1
0:48:1
-1:1
0:55:1
-1:1
3:228:1
0:1
0:268:2
-1:-1
6:145:1
1:1
7:46:2
1:0
0:146:3
-1:-1
0:270:2
-1:-1
0:233:1
-1:-1
0:45:1
-1:1
2:51:1
0:-1
3:273:1
0:1
0:291:2
-1:0
0:86:1
-1:-1
0:41:1
-1:1
0:174:1
-1:1
0:331:1
-1:1
4:200:1
1:1
7:45:2
1:0
0:112:3
-1:0
0:226:2
-1:-1
3:344:1
0:1
3:46:2
0:-1
8:37:2
2:-1
0:200:2
-1:1
0:316:2
-1:1
4:184:2
1:0
7:44:3
1:0
0:97:4
-1:0
0:325:3
-1:-1
0:280:2
-1:0
0:44:1
-1:1
0:60:1
-1:1
0:309:1
-1:1
0:344:1
-1:1
4:50:1
1:1
0:39:2
-1:1
0:35:2
-1:-1
2:242:1
0:1
0:291:2
-1:-1
5:122:1
1:1
0:45:2
-1:0
0:132:1
-1:-1
1:293:1
-1:-1
4:254:1
1:1
7:35:2
1:1
0:58:3
-1:0
0:302:2
-1:0
0:289:1
-1:1
4:44:1
1:-1
0:41:1
-1:1
2:161:1
0:1
0:304:2
-1:1
0:208:2
-1:-1
1:37:1
-1:-1
0:50:1
-1:-1
1:301:1
-1:1
1:289:1
-1:-1
0:96:1
-1:-1
7:36:1
1:-1
2:144:1
0:1
0:308:2
-1:0
4:211:1
1:1
3:41:2
0:1
0:59:3
-1:0
0:146:2
-1:0
0:143:1
-1:1
2:138:1
0:1
0:154:2
-1:-1
5:50:1
1:1
6:46:2
1:-1
2:49:2
0:-1
1:256:2
-1:-1
4:341:1
1:-1
2:40:1
0:1
3:40:2
0:0
2:179:2
0:1
0:328:3
-1:-1
0:205:2
-1:-1
7:46:1
1:1
0:100:2
-1:0
1:338:1
-1:-1
0:240:1
-1:1
2:59:1
0:-1
7:40:1
1:-1
0:44:1
-1:-1
0:237:1
-1:1
0:314:1
-1:1
0:131:1
-1:1
5:45:1
1:1
1:115:2
-1:0
1:280:1
-1:-1
0:286:1
-1:-1
0:50:1
-1:1
0:39:1
-1:1
1:246:1
-1:1
1:286:1
-1:-1
3:138:1
0:-1
0:46:1
-1:1
0:131:1
-1:-1
0:339:1
-1:1
5:208:1
1:1
4:41:2
1:0
1:89:3
-1:0
2:225:2
0:1
1:321:3
-1:-1
3:86:2
0:-1
7:43:2
1:-1
3:217:2
0:0
2:322:2
0:1
1:186:3
-1:0
7:46:2
1:0
0:94:3
-1:0
1:300:2
-1:0
5:290:1
1:-1
0:55:1
-1:-1
6:46:1
1:-1
0:240:1
-1:-1
1:338:1
-1:1
4:158:1
1:-1
0:49:1
-1:1
0:36:1
-1:-1
0:229:1
-1:1
2:316:1
0:-1
4:142:1
1:-1
7:49:1
1:1
2:159:2
0:0
0:315:2
-1:0
2:211:1
0:1
0:37:2
-1:-1
2:81:1
0:1
1:295:2
-1:-1
0:293:1
-1:-1
3:53:1
0:1
7:40:2
1:-1
2:216:2
0:0
3:346:2
0:-1
3:130:2
0:-1
8:47:2
2:0
1:137:3
-1:0
2:248:2
0:-1
4:295:2
1:0
4:53:3
1:0
0:39:4
-1:-1
0:282:3
-1:1
1:310:3
-1:0
4:148:2
1:-1
8:45:2
2:0
2:146:3
0:0
1:344:3
-1:0
0:203:2
-1:-1
3:44:1
0:-1
0:85:1
-1:1
1:286:1
-1:-1
7:356:1
1:-1
0:57:1
-1:-1
7:38:1
1:-1
0:28:1
-1:-1
0:232:1
-1:1
2:298:1
0:1
0:155:2
-1:0
8:45:1
2:1
0:148:3
-1:0
0:326:2
-1:0
2:196:1
0:1
0:37:2
-1:-1
1:84:1
-1:1
0:277:1
-1:-1
3:296:1
0:1
4:51:2
1:0
7:41:3
1:0
6:210:4
1:-1
1:347:4
-1:-1
3:133:3
0:-1
8:44:3
2:0
1:121:4
-1:0
0:258:3
-1:-1
0:295:2
-1:-1
0:53:1
-1:1
5:51:1
1:-1
1:307:1
-1:1
2:317:1
0:1
2:85:2
0:-1
0:36:2
-1:0
0:134:1
-1:1
2:338:1
0:-1
5:216:1
1:-1
4:42:1
1:-1
3:87:1
0:1
0:268:2
-1:0
0:355:1
-1:1
4:55:1
1:1
0:42:2
-1:0
0:28:1
-1:1
1:261:1
-1:-1
1:269:1
-1:-1
4:145:1
1:-1
6:48:1
1:1
0:137:2
-1:-1
0:312:1
-1:1
0:219:1
-1:-1
4:44:1
1:-1
0:77:1
-1:1
4:283:1
1:-1
1:296:1
-1:1
1:53:1
-1:1
8:39:1
2:1
1:199:3
-1:-1
1:305:2
-1:1
3:183:2
0:-1
7:43:2
1:0
1:122:3
-1:0
0:264:2
-1:-1
0:276:1
-1:-1
0:51:1
-1:1
0:59:1
-1:-1
2:327:1
0:-1
4:331:1
1:-1
0:53:1
-1:-1
8:39:1
2:-1
0:189:1
-1:1
2:324:1
0:1
3:187:2
0:0
7:43:2
1:0
0:123:3
-1:0
2:278:2
0:-1
0:314:2
-1:0
0:48:1
-1:1
2:50:1
0:-1
0:58:1
-1:1
1:246:1
-1:-1
1:335:1
-1:-1
1:52:1
-1:-1
8:38:1
2:1
1:205:3
-1:0
0:289:2
-1:-1
3:168:1
0:1
8:48:2
2:0
0:123:3
-1:0
2:260:2
0:0
0:263:2
-1:-1
4:46:1
1:1
2:40:2
0:-1
0:238:2
-1:1
1:330:2
-1:0
0:117:1
-1:-1
8:45:1
2:1
1:153:3
-1:0
2:300:2
0:0
0:218:2
-1:0
6:37:1
1:1
2:56:2
0:0
1:312:2
-1:-1
2:338:1
0:-1
0:51:1
-1:-1
8:40:1
2:-1
2:209:1
0:-1
2:299:1
0:1
0:177:2
-1:0
7:43:1
1:-1
1:118:1
-1:-1
0:283:1
-1:-1
0:313:1
-1:-1
6:43:1
1:1
3:42:2
0:-1
0:30:2
-1:1
0:264:2
-1:-1
0:250:1
-1:-1
6:156:1
1:-1
0:45:1
-1:1
0:136:1
-1:-1
4:319:1
1:1
0:210:2
-1:0
0:38:1
-1:1
0:56:1
-1:-1
0:281:1
-1:1
3:332:1
0:1
1:44:2
-1:-1
8:40:1
2:1
1:232:3
-1:0
1:328:2
-1:-1
4:143:1
1:1
8:41:2
2:0
1:125:3
-1:0
0:251:2
-1:-1
7:270:1
1:1
6:48:2
1:0
0:47:3
-1:-1
1:257:2
-1:-1
0:311:1
-1:-1
0:126:1
-1:1
0:43:1
-1:1
1:126:1
-1:-1
2:322:1
0:1
3:239:2
0:-1
0:45:2
-1:1
2:90:2
0:-1
0:328:2
-1:1
0:317:2
-1:-1
6:45:1
1:1
6:48:2
1:-1
0:33:2
-1:-1
2:260:1
0:-1
0:291:1
-1:1
0:92:1
-1:1
3:43:1
0:1
0:126:2
-1:1
0:295:2
-1:1
0:211:2
-1:0
0:50:1
-1:-1
3:85:1
0:-1
2:245:1
0:-1
4:319:1
1:-1
4:51:1
1:1
8:39:2
2:0
2:257:3
0:0
2:288:3
0:-1
3:161:3
0:0
7:48:3
1:0
2:123:4
0:-1
1:257:4
-1:-1
6:254:3
1:-1
0:53:3
-1:-1
5:44:2
1:-1
0:254:2
-1:0
1:338:1
-1:1
0:113:1
-1:-1
0:43:1
-1:1
1:154:1
-1:1
0:294:1
-1:1
8:264:1
2:1
4:47:3
1:0
2:89:4
0:0
2:336:4
0:0
4:311:4
1:0
3:50:5
0:-1
7:41:5
1:-1
0:22:5
-1:-1
3:243:4
0:0
0:268:4
-1:0
3:162:3
0:0
5:50:3
1:0
0:127:4
-1:0
1:328:3
-1:0
6:219:2
1:0
0:44:3
-1:0
0:92:2
-1:-1
1:275:1
-1:-1
6:315:1
1:-1
4:49:1
1:-1
0:46:1
-1:-1
0:272:1
-1:1
0:300:1
-1:1
6:141:1
1:-1
0:41:1
-1:-1
4:145:1
1:-1
0:316:1
-1:-1
1:213:1
-1:1
3:50:1
0:-1
2:85:1
0:1
1:290:2
-1:-1
0:319:1
-1:-1
1:53:1
-1:1
7:43:1
1:1
2:220:2
0:0
1:327:2
-1:-1
4:161:1
1:1
0:47:2
-1:-1
1:160:1
-1:-1
1:352:1
-1:-1
0:221:1
-1:-1
7:44:1
1:-1
0:47:1
-1:-1
0:269:1
-1:1
0:282:1
-1:1
4:136:1
1:1
6:47:2
1:0
0:135:3
-1:0
0:325:2
-1:0
1:247:1
-1:1
4:41:1
1:1
2:90:2
0:0
1:311:2
-1:-1
0:294:1
-1:-1
0:55:1
-1:-1
4:53:1
1:1
3:299:2
0:-1
1:339:2
-1:0
0:56:1
-1:-1
7:43:1
1:-1
0:163:1
-1:1
0:292:1
-1:1
5:206:1
1:1
3:43:2
0:1
2:93:3
0:0
0:280:3
-1:0
0:333:2
-1:-1
3:59:1
0:-1
1:37:1
-1:-1
2:241:1
0:1
1:292:2
-1:0
4:151:1
1:-1
7:52:1
1:1
0:158:2
-1:0
0:361:1
-1:1
3:219:1
0:-1
7:42:1
1:1
0:46:2
-1:0
0:222:1
-1:1
1:256:1
-1:-1
3:174:1
0:-1
7:42:1
1:1
0:117:2
-1:0
2:277:1
0:-1
0:268:1
-1:1
4:53:1
1:1
2:83:2
0:0
0:303:2
-1:-1
1:275:1
-1:1
0:50:1
-1:1
4:49:1
1:-1
2:274:1
0:-1
0:364:1
-1:-1
0:54:1
-1:-1
7:40:1
1:-1
1:183:1
-1:1
1:282:1
-1:-1
2:197:1
0:1
3:35:2
0:-1
1:88:2
-1:0
0:298:1
-1:-1
5:305:1
1:1
6:53:2
1:0
0:37:3
-1:-1
1:276:2
-1:1
2:302:2
0:0
4:146:2
1:-1
8:48:2
2:0
2:142:3
0:0
0:364:3
-1:0
3:227:2
0:-1
8:47:2
2:0
0:42:3
-1:0
2:237:2
0:0
0:262:2
-1:0
3:180:1
0:-1
7:44:1
1:1
0:117:2
-1:0
0:266:1
-1:1
0:276:1
-1:1
0:53:1
-1:1
0:79:1
-1:-1
1:313:1
-1:-1
6:276:1
1:-1
6:49:1
1:1
0:45:2
-1:-1
2:262:1
0:-1
0:291:1
-1:1
3:138:1
0:-1
8:46:1
2:1
0:128:3
-1:0
1:294:2
-1:-1
0:237:1
-1:-1
6:48:1
1:1
4:41:2
1:-1
1:258:2
-1:1
0:338:2
-1:1
0:93:2
-1:1
6:47:2
1:1
1:184:3
-1:-1
4:285:2
1:-1
0:228:2
-1:1
0:35:2
-1:0
0:60:1
-1:1
0:298:1
-1:-1
0:342:1
-1:1
0:68:1
-1:1
7:39:1
1:-1
0:27:1
-1:-1
0:225:1
-1:1
2:256:1
0:-1
3:202:1
0:1
7:44:2
1:0
0:112:3
-1:0
1:257:2
-1:-1
0:297:1
-1:-1
0:48:1
-1:1
2:57:1
0:1
1:313:2
-1:0
5:285:1
1:-1
5:45:1
1:1
8:38:2
2:-1
1:227:2
-1:-1
0:311:1
-1:-1
6:152:1
1:-1
8:47:1
2:1
0:140:3
-1:0
0:269:2
-1:-1
0:236:1
-1:1
0:49:1
-1:1
0:82:1
-1:1
1:324:1
-1:-1
4:293:1
1:-1
0:43:1
-1:1
0:61:1
-1:1
0:314:1
-1:-1
0:322:1
-1:1
0:49:1
-1:-1
8:39:1
2:-1
1:176:1
-1:1
0:325:1
-1:-1
0:194:1
-1:-1
0:36:1
-1:-1
0:50:1
-1:1
0:225:1
-1:1
0:258:1
-1:-1
0:191:1
-1:-1
4:40:1
1:-1
1:75:1
-1:1
0:288:1
-1:1
7:309:1
1:1
0:48:2
-1:0
2:55:1
0:1
1:321:2
-1:0
3:290:1
0:-1
4:49:1
1:1
8:37:2
2:0
0:209:3
-1:0
0:326:2
-1:-1
4:143:1
1:1
0:45:2
-1:0
0:147:1
-1:-1
1:261:1
-1:-1
0:248:1
-1:-1
0:44:1
-1:1
0:80:1
-1:1
0:315:1
-1:-1
6:305:1
1:1
4:45:2
1:-1
8:43:2
2:0
3:212:3
0:-1
1:300:3
-1:0
4:171:2
1:0
7:46:3
1:0
2:127:4
0:0
0:132:4
-1:-1
0:177:3
-1:0
0:142:2
-1:-1
4:110:1
1:1
7:45:2
1:0
0:37:3
-1:-1
0:224:2
-1:0
1:235:1
-1:-1
0:191:1
-1:-1
0:38:1
-1:1
1:93:1
-1:-1
0:278:1
-1:-1
6:282:1
1:-1
6:48:1
1:1
1:39:2
-1:-1
1:216:1
-1:1
0:304:1
-1:-1
0:110:1
-1:1
0:46:1
-1:1
0:171:1
-1:1
1:323:1
-1:1
0:194:1
-1:-1
7:47:1
1:1
0:121:2
-1:0
1:278:1
-1:1
0:289:1
-1:-1
0:52:1
-1:-1
1:80:1
-1:-1
2:330:1
0:1
6:287:2
1:-1
5:55:2
1:0
0:49:3
-1:-1
0:258:2
-1:-1
0:312:1
-1:1
1:119:1
-1:1
0:46:1
-1:1
0:134:1
-1:1
0:358:1
-1:1
0:206:1
-1:-1
3:48:1
0:1
0:45:2
-1:0
0:36:1
-1:1
1:239:1
-1:1
1:261:1
-1:-1
3:184:1
0:-1
0:42:1
-1:1
2:100:1
0:-1
1:306:1
-1:-1
4:269:1
1:1
5:52:2
1:0
0:46:3
-1:-1
0:240:2
-1:-1
0:287:1
-1:-1
3:120:1
0:1
0:46:2
-1:0
1:152:1
-1:-1
0:286:1
-1:-1
4:271:1
1:-1
1:48:1
-1:-1
0:53:1
-1:1
0:312:1
-1:1
1:319:1
-1:1
0:73:1
-1:-1
7:41:1
1:-1
0:163:1
-1:1
0:302:1
-1:-1
0:207:1
-1:-1
7:48:1
1:-1
2:99:1
0:-1
0:307:1
-1:-1
0:288:1
-1:1
3:52:1
0:1
4:41:2
1:-1
0:243:2
-1:1
2:348:2
0:-1
0:128:2
-1:-1
7:46:1
1:1
0:35:2
-1:-1
2:249:1
0:1
0:250:2
-1:-1
3:179:1
0:-1
7:43:1
1:1
3:99:2
0:0
0:309:2
-1:-1
0:265:1
-1:-1
0:52:1
-1:1
2:50:1
0:-1
1:267:1
-1:-1
1:301:1
-1:1
0:72:1
-1:-1
0:48:1
-1:1
0:188:1
-1:1
0:329:1
-1:1
2:199:1
0:1
7:43:2
1:0
1:118:3
-1:0
1:273:2
-1:-1
0:291:1
-1:-1
6:58:1
1:1
1:40:2
-1:-1
0:233:1
-1:1
1:321:1
-1:-1
4:124:1
1:-1
0:51:1
-1:1
0:167:1
-1:1
0:325:1
-1:1
3:208:1
0:1
7:43:2
1:0
0:113:3
-1:0
1:307:2
-1:0
0:313:1
-1:-1
3:59:1
0:-1
0:56:1
-1:1
2:250:1
0:1
0:265:2
-1:0
3:182:1
0:1
6:49:2
1:-1
0:126:2
-1:-1
1:305:1
-1:-1
0:229:1
-1:-1
4:45:1
1:-1
0:52:1
-1:1
2:301:1
0:1
4:332:2
1:-1
0:51:2
-1:-1
7:38:1
1:-1
1:219:1
-1:1
2:295:1
0:-1
4:181:1
1:-1
8:46:1
2:1
1:144:3
-1:0
0:274:2
-1:-1
7:254:1
1:1
0:43:2
-1:0
4:52:1
1:-1
2:288:1
0:1
1:327:2
-1:-1
0:82:1
-1:1
3:43:1
0:1
0:170:2
-1:1
0:326:2
-1:0
3:215:1
0:1
8:47:2
2:0
1:115:3
-1:0
1:295:2
-1:0
0:321:1
-1:-1
0:55:1
-1:1
3:56:1
0:-1
0:72:1
-1:-1
2:293:1
0:-1
0:278:1
-1:-1
3:69:1
0:-1
7:42:1
1:-1
1:167:1
-1:-1
0:324:1
-1:-1
5:173:1
1:-1
7:40:1
1:-1
0:117:1
-1:-1
2:279:1
0:1
0:284:2
-1:-1
0:51:1
-1:1
0:81:1
-1:-1
2:331:1
0:-1
3:289:1
0:-1
0:49:1
-1:1
0:59:1
-1:-1
1:278:1
-1:1
0:310:1
-1:-1
0:68:1
-1:-1
0:39:1
-1:1
1:158:1
-1:1
0:312:1
-1:-1
0:223:1
-1:1
0:35:1
-1:1
0:85:1
-1:-1
0:273:1
-1:1
4:337:1
1:1
4:50:2
1:0
7:38:3
1:0
3:232:4
0:0
0:340:4
-1:0
2:195:3
0:0
7:43:3
1:0
0:45:4
-1:0
1:236:3
-1:1
0:266:3
-1:-1
0:208:2
-1:-1
7:46:1
1:1
1:126:2
-1:0
0:283:1
-1:-1
0:264:1
-1:-1
4:50:1
1:1
2:39:2
0:-1
1:244:2
-1:1
0:317:2
-1:-1
0:122:1
-1:1
8:44:1
2:1
2:172:3
0:0
1:321:3
-1:-1
3:207:2
0:0
7:46:2
1:0
0:99:3
-1:0
0:304:2
-1:0
5:277:1
1:1
4:45:2
1:-1
8:39:2
2:0
0:214:3
-1:0
1:359:2
-1:0
4:138:1
1:1
8:49:2
2:0
1:152:3
-1:-1
0:259:2
-1:0
7:255:1
1:1
0:37:2
-1:0
0:58:1
-1:1
3:303:1
0:1
0:369:2
-1:0
0:49:1
-1:-1
7:39:1
1:-1
0:30:1
-1:-1
0:246:1
-1:1
3:284:1
0:-1
3:170:1
0:-1
7:43:1
1:1
0:120:2
-1:0
0:283:1
-1:1
6:292:1
1:1
0:38:2
-1:-1
0:58:1
-1:1
0:310:1
-1:1
4:344:1
1:1
4:44:2
1:0
8:39:3
2:0
1:261:4
-1:0
2:312:3
0:-1
5:112:3
1:-1
7:48:3
1:0
1:133:4
-1:0
0:305:3
-1:-1
0:233:2
-1:-1
0:36:1
-1:-1
0:56:1
-1:1
2:302:1
0:1
4:335:2
1:0
1:44:3
-1:-1
8:40:2
2:1
1:262:4
-1:0
0:305:3
-1:0
5:113:2
1:0
0:44:3
-1:0
0:127:2
-1:-1
1:311:1
-1:-1
0:265:1
-1:1
7:38:1
1:-1
0:58:1
-1:1
0:211:1
-1:-1
2:278:1
0:-1
0:185:1
-1:1
0:38:1
-1:1
0:90:1
-1:-1
0:289:1
-1:1
0:294:1
-1:1
0:48:1
-1:-1
6:39:1
1:-1
0:139:1
-1:1
2:132:1
0:1
0:153:2
-1:0
0:182:1
-1:-1
7:92:1
1:-1
0:44:1
-1:-1
4:52:1
1:-1
0:65:1
-1:1
0:291:1
-1:1
0:254:1
-1:1
5:49:1
1:-1
0:45:1
-1:-1
1:257:1
-1:-1
0:320:1
-1:1
3:94:1
0:1
0:46:2
-1:0
0:173:1
-1:1
0:282:1
-1:1
1:251:1
-1:1
3:43:1
0:-1
1:80:1
-1:1
1:314:1
-1:1
0:282:1
-1:-1
0:58:1
-1:-1
7:44:1
1:-1
0:194:1
-1:1
2:335:1
0:-1
2:165:1
0:-1
7:44:1
1:1
1:115:2
-1:0
2:298:1
0:-1
1:284:1
-1:-1
3:54:1
0:-1
0:47:1
-1:-1
1:284:1
-1:-1
0:355:1
-1:1
0:96:1
-1:1
6:47:1
1:1
0:37:2
-1:-1
2:243:1
0:1
0:274:2
-1:-1
0:167:1
-1:-1
7:45:1
1:-1
0:106:1
-1:-1
0:283:1
-1:-1
6:284:1
1:-1
0:52:1
-1:1
3:44:1
0:-1
0:243:1
-1:1
0:289:1
-1:-1
4:135:1
1:1
6:47:2
1:0
0:177:3
-1:0
0:279:2
-1:0
7:260:1
1:1
1:49:2
-1:0
0:61:1
-1:1
2:282:1
0:1
1:266:2
-1:0
5:102:1
1:-1
3:46:1
0:1
0:181:2
-1:1
1:358:2
-1:0
0:202:1
-1:1
7:46:1
1:-1
1:117:1
-1:-1
1:286:1
-1:-1
0:313:1
-1:-1
3:58:1
0:1
3:94:2
0:0
0:341:2
-1:-1
0:306:1
-1:-1
0:58:1
-1:1
3:51:1
0:1
0:56:2
-1:-1
0:271:1
-1:-1
2:278:1
0:1
0:96:2
-1:1
4:48:2
1:1
0:183:3
-1:-1
1:320:2
-1:0
2:176:1
0:1
8:47:2
2:0
1:136:3
-1:0
0:285:2
-1:-1
6:260:1
1:1
0:45:2
-1:0
4:50:1
1:1
2:316:2
0:1
0:346:3
-1:-1
3:54:2
0:-1
7:36:2
1:-1
1:193:2
-1:1
2:273:2
0:-1
2:206:2
0:-1
0:37:2
-1:-1
2:107:1
0:1
0:315:2
-1:-1
0:286:1
-1:-1
4:52:1
1:1
3:39:2
0:-1
1:251:2
-1:1
1:325:2
-1:-1
0:123:1
-1:-1
8:47:1
2:1
0:160:3
-1:0
0:355:2
-1:-1
2:219:1
0:1
0:38:2
-1:-1
0:54:1
-1:1
2:250:1
0:1
1:269:2
-1:-1
3:174:1
0:-1
7:43:1
1:1
0:114:2
-1:0
0:287:1
-1:1
1:288:1
-1:-1
0:53:1
-1:-1
1:43:1
-1:-1
0:263:1
-1:1
1:314:1
-1:-1
0:100:1
-1:-1
6:46:1
1:1
0:194:2
-1:-1
1:287:1
-1:1
2:221:1
0:-1
3:35:1
0:-1
0:62:1
-1:1
2:268:1
0:1
0:293:2
-1:0
2:84:1
0:-1
0:44:1
-1:1
0:169:1
-1:1
1:325:1
-1:1
3:217:1
0:-1
7:44:1
1:1
0:117:2
-1:0
0:273:1
-1:1
7:312:1
1:1
6:52:2
1:0
8:35:3
2:-1
1:266:3
-1:-1
1:327:2
-1:-1
5:127:1
1:1
8:47:2
2:0
0:39:3
-1:0
2:242:2
0:0
1:254:2
-1:0
5:179:1
1:1
8:47:2
2:0
0:164:3
-1:0
0:284:2
-1:0
2:239:1
0:-1
0:36:1
-1:-1
0:83:1
-1:1
2:323:1
0:-1
0:283:1
-1:-1
0:48:1
-1:1
0:60:1
-1:-1
0:312:1
-1:-1
2:328:1
0:1
0:45:2
-1:0
8:39:1
2:-1
0:165:1
-1:1
1:303:1
-1:1
0:191:1
-1:-1
0:32:1
-1:-1
0:97:1
-1:1
1:284:1
-1:1
6:323:1
1:-1
4:46:1
1:-1
7:35:1
1:1
2:220:2
0:0
0:330:2
-1:0
4:176:1
1:1
8:46:2
2:0
0:130:3
-1:-1
0:317:2
-1:-1
0:245:1
-1:-1
6:38:1
1:1
0:58:2
-1:0
1:229:1
-1:1
2:262:1
0:1
4:179:2
1:-1
7:43:2
1:0
1:112:3
-1:0
1:287:2
-1:-1
0:289:1
-1:-1
0:44:1
-1:1
0:79:1
-1:1
2:317:1
0:-1
7:292:1
1:1
6:43:2
1:0
0:47:3
-1:-1
1:252:2
-1:-1
1:284:1
-1:-1
5:140:1
1:-1
7:50:1
1:1
1:127:2
-1:0
0:301:1
-1:1
0:235:1
-1:1
0:44:1
-1:1
0:86:1
-1:1
1:277:1
-1:-1
4:331:1
1:-1
3:45:1
0:1
8:41:2
2:-1
2:247:2
0:0
2:309:2
0:0
5:160:2
1:0
0:45:3
-1:0
0:134:2
-1:0
1:360:1
-1:-1
0:228:1
-1:-1
6:39:1
1:1
0:56:2
-1:0
0:230:1
-1:-1
3:270:1
0:1
0:191:2
-1:-1
7:43:1
1:-1
0:118:1
-1:-1
0:310:1
-1:1
0:277:1
-1:1
0:48:1
-1:1
0:78:1
-1:-1
0:316:1
-1:-1
0:272:1
-1:1
5:48:1
1:-1
0:67:1
-1:1
0:282:1
-1:-1
0:333:1
-1:1
0:50:1
-1:-1
7:38:1
1:-1
0:188:1
-1:-1
1:273:1
-1:1
6:210:1
1:1
3:39:2
0:-1
2:84:2
0:-1
2:326:2
0:-1
1:299:2
-1:-1
6:50:1
1:-1
6:45:1
1:-1
0:249:1
-1:-1
2:321:1
0:1
3:127:2
0:-1
1:51:2
-1:0
0:36:1
-1:-1
3:29:1
0:1
0:189:2
-1:-1
2:339:1
0:-1
3:128:1
0:-1
0:47:1
-1:1
0:37:1
-1:1
0:253:1
-1:1
0:298:1
-1:-1
3:145:1
0:-1
0:49:1
-1:1
1:154:1
-1:1
0:280:1
-1:-1
8:259:1
2:-1
4:43:1
1:1
0:69:2
-1:0
2:313:1
0:-1
1:291:1
-1:1
4:54:1
1:-1
8:40:1
2:-1
0:235:1
-1:1
0:337:1
-1:-1
3:135:1
0:1
0:45:2
-1:0
1:129:1
-1:-1
1:279:1
-1:-1
1:268:1
-1:-1
4:53:1
1:-1
0:90:1
-1:1
2:337:1
0:1
0:290:2
-1:-1
3:53:1
0:-1
0:47:1
-1:-1
1:242:1
-1:-1
1:315:1
-1:-1
3:138:1
0:-1
5:49:1
1:1
0:133:2
-1:0
1:354:1
-1:1
5:232:1
1:1
3:44:2
0:1
0:56:3
-1:0
2:240:2
0:1
0:266:3
-1:-1
0:186:2
-1:0
6:47:1
1:1
0:97:2
-1:-1
1:317:1
-1:1
0:293:1
-1:-1
0:54:1
-1:1
4:52:1
1:1
1:283:2
-1:-1
1:308:1
-1:-1
2:72:1
0:1
7:43:2
1:0
0:168:3
-1:0
2:335:2
0:0
3:188:2
0:0
7:43:2
1:0
0:121:3
-1:0
1:271:2
-1:0
3:316:1
0:-1
3:55:1
0:1
1:83:2
-1:0
2:331:1
0:1
0:306:2
-1:-1
3:56:1
0:1
0:71:2
-1:0
0:301:1
-1:-1
0:329:1
-1:1
0:59:1
-1:-1
7:44:1
1:-1
6:222:1
1:1
5:356:2
1:-1
2:146:2
0:1
8:46:3
2:0
0:42:4
-1:-1
3:253:3
0:0
0:259:3
-1:-1
2:191:2
0:0
7:43:2
1:0
0:113:3
-1:0
2:303:2
0:0
0:261:2
-1:0
0:48:1
-1:1
3:47:1
0:-1
1:247:1
-1:-1
0:316:1
-1:-1
3:78:1
0:-1
0:42:1
-1:1
0:172:1
-1:1
0:320:1
-1:1
3:209:1
0:1
8:46:2
2:0
2:95:3
0:0
0:263:3
-1:-1
4:334:2
1:-1
1:49:2
-1:-1
7:39:1
1:1
1:213:2
-1:0
1:316:1
-1:-1
4:171:1
1:-1
8:45:1
2:-1
0:117:1
-1:1
2:302:1
0:1
0:273:2
-1:-1
3:48:1
0:-1
1:62:1
-1:1
0:298:1
-1:-1
4:369:1
1:1
2:48:2
0:0
7:41:2
1:0
0:31:3
-1:0
0:245:2
-1:0
2:308:1
0:1
4:131:2
1:0
8:46:3
2:0
0:137:4
-1:0
1:309:3
-1:-1
1:219:2
-1:-1
4:38:1
1:1
0:55:2
-1:0
2:292:1
0:-1
4:311:1
1:-1
3:50:1
0:1
8:37:2
2:-1
1:267:2
-1:0
0:300:1
-1:-1
5:130:1
1:1
8:45:2
2:0
0:121:3
-1:-1
2:318:2
0:0
0:270:2
-1:-1
0:51:1
-1:1
2:50:1
0:1
3:279:2
0:-1
0:338:2
-1:-1
3:69:1
0:1
7:45:2
1:-1
0:169:2
-1:0
2:327:1
0:1
3:185:2
0:0
7:46:2
1:0
0:113:3
-1:0
0:297:2
-1:-1
0:315:1
-1:1
0:50:1
-1:1
0:57:1
-1:-1
3:236:1
0:1
1:300:2
-1:-1
5:130:1
1:1
8:46:2
2:0
1:133:3
-1:0
0:312:2
-1:-1
5:219:1
1:-1
0:44:1
-1:-1
2:54:1
0:-1
1:301:1
-1:-1
1:328:1
-1:-1
0:48:1
-1:1
7:37:1
1:-1
2:227:1
0:-1
0:285:1
-1:1
5:180:1
1:1
7:46:2
1:0
0:132:3
-1:-1
0:288:2
-1:-1
6:265:1
1:1
6:46:2
1:0
0:40:3
-1:-1
1:224:2
-1:1
1:320:2
-1:-1
4:157:1
1:-1
8:46:1
2:-1
0:119:1
-1:1
1:278:1
-1:1
0:295:1
-1:-1
0:45:1
-1:1
0:64:1
-1:1
0:320:1
-1:-1
4:375:1
1:1
0:50:2
-1:0
8:37:1
2:-1
0:25:1
-1:1
4:253:1
1:1
1:322:2
-1:-1
0:102:1
-1:-1
7:46:1
1:1
0:143:2
-1:0
4:321:1
1:1
0:212:2
-1:0
0:33:1
-1:-1
0:64:1
-1:1
1:292:1
-1:-1
0:343:1
-1:-1
1:48:1
-1:-1
8:41:1
2:1
1:276:3
-1:0
1:286:2
-1:-1
0:120:1
-1:-1
0:44:1
-1:1
0:127:1
-1:-1
1:288:1
-1:-1
7:250:1
1:-1
0:35:1
-1:-1
3:59:1
0:1
2:294:2
0:-1
0:328:2
-1:-1
0:63:1
-1:1
7:37:1
1:-1
1:174:1
-1:-1
0:323:1
-1:-1
4:197:1
1:-1
6:41:1
1:1
1:79:2
-1:-1
1:318:1
-1:-1
7:322:1
1:-1
6:47:1
1:1
8:39:2
2:-1
0:22:2
-1:-1
0:256:1
-1:1
0:274:1
-1:1
5:114:1
1:-1
0:45:1
-1:1
1:152:1
-1:1
0:265:1
-1:-1
0:239:1
-1:1
6:40:1
1:1
0:53:2
-1:0
2:296:1
0:1
4:335:2
1:-1
4:49:2
1:0
8:36:3
2:0
1:262:4
-1:0
0:265:3
-1:-1
3:139:2
0:0
8:42:2
2:-1
0:95:2
-1:0
0:278:1
-1:1
6:259:1
1:1
6:48:2
1:0
6:46:3
1:-1
0:234:3
-1:-1
1:318:2
-1:1
0:126:2
-1:-1
5:47:1
1:1
0:170:2
-1:-1
0:271:1
-1:1
7:220:1
1:1
7:37:2
1:0
0:59:3
-1:0
1:169:2
-1:-1
4:118:1
1:-1
1:160:1
-1:-1
1:172:1
-1:-1
0:47:1
-1:-1
8:41:1
2:-1
0:25:1
-1:1
1:253:1
-1:1
2:308:1
0:-1
4:122:1
1:-1
5:51:1
1:1
3:163:2
0:0
2:293:2
0:0
0:216:2
-1:-1
5:39:1
1:-1
0:82:1
-1:1
0:296:1
-1:1
7:313:1
1:1
5:55:2
1:0
0:45:3
-1:-1
0:240:2
-1:-1
0:303:1
-1:-1
3:110:1
0:1
0:48:2
-1:0
0:129:1
-1:1
0:296:1
-1:-1
3:254:1
0:1
3:52:2
0:1
0:54:3
-1:0
2:310:2
0:0
0:337:2
-1:-1
1:51:1
-1:1
7:43:1
1:1
1:275:2
-1:0
0:296:1
-1:1
3:135:1
0:1
0:46:2
-1:0
0:147:1
-1:-1
1:318:1
-1:-1
0:279:1
-1:-1
4:45:1
1:-1
0:55:1
-1:1
0:207:1
-1:1
0:281:1
-1:1
0:180:1
-1:1
7:47:1
1:1
0:113:2
-1:0
0:272:1
-1:1
0:299:1
-1:1
4:51:1
1:1
0:53:2
-1:0
0:314:1
-1:1
4:338:1
1:1
0:55:2
-1:0
7:35:1
1:1
0:214:2
-1:0
1:292:1
-1:1
4:163:1
1:-1
8:44:1
2:-1
1:124:1
-1:1
1:279:1
-1:-1
0:278:1
-1:1
4:54:1
1:1
0:54:2
-1:0
0:307:1
-1:1
4:359:1
1:1
4:54:2
1:0
7:39:3
1:-1
2:287:3
0:0
1:320:3
-1:-1
0:130:2
-1:-1
7:48:1
1:1
1:131:2
-1:0
3:316:1
0:-1
0:283:1
-1:-1
3:46:1
0:-1
0:54:1
-1:1
0:202:1
-1:1
1:306:1
-1:-1
3:190:1
0:-1
3:37:1
0:-1
0:99:1
-1:1
2:305:1
0:-1
5:299:1
1:1
1:57:2
-1:0
2:38:1
0:-1
0:268:1
-1:1
1:284:1
-1:1
5:141:1
1:-1
0:43:1
-1:1
1:167:1
-1:1
2:309:1
0:-1
3:208:1
0:-1
8:44:1
2:1
0:123:3
-1:0
0:258:2
-1:0
5:279:1
1:1
0:49:2
-1:0
1:39:1
-1:-1
0:240:1
-1:1
3:330:1
0:-1
0:153:1
-1:-1
7:46:1
1:1
0:163:2
-1:0
1:344:1
-1:-1
3:213:1
0:1
8:45:2
2:0
0:101:3
-1:0
2:326:2
0:-1
0:294:2
-1:0
3:48:1
0:-1
0:56:1
-1:1
0:219:1
-1:1
3:338:1
0:1
3:145:2
0:-1
7:42:2
1:0
1:141:3
-1:0
0:284:2
-1:-1
0:278:1
-1:1
0:43:1
-1:-1
5:52:1
1:-1
2:282:1
0:1
0:343:2
-1:1
0:57:2
-1:0
7:40:1
1:1
1:193:2
-1:0
1:338:1
-1:-1
3:167:1
0:1
7:41:2
1:0
0:113:3
-1:0
0:259:2
-1:0
1:287:1
-1:-1
6:52:1
1:-1
2:38:1
0:-1
0:262:1
-1:1
0:317:1
-1:-1
4:153:1
1:1
8:45:2
2:0
0:131:3
-1:-1
0:341:2
-1:0
0:225:1
-1:-1
5:43:1
1:-1
0:74:1
-1:1
0:300:1
-1:1
2:358:1
0:1
1:50:2
-1:0
8:38:1
2:1
0:25:3
-1:0
1:205:2
-1:0
1:310:1
-1:-1
3:183:1
0:-1
7:42:1
1:1
1:137:2
-1:0
0:285:1
-1:-1
6:258:1
1:1
0:42:2
-1:-1
0:60:1
-1:1
1:311:1
-1:1
2:308:1
0:-1
0:49:1
-1:1
8:38:1
2:-1
0:201:1
-1:1
0:322:1
-1:1
4:168:1
1:1
7:47:2
1:0
2:115:3
0:0
2:275:3
0:-1
6:297:3
1:0
4:46:4
1:-1
7:34:4
1:0
2:232:5
0:0
1:342:5
-1:-1
5:164:4
1:-1
8:48:4
2:0
1:147:5
-1:-1
0:312:4
-1:-1
0:240:3
-1:-1
6:44:2
1:-1
1:90:2
-1:0
1:294:1
-1:-1
0:341:1
-1:1
0:50:1
-1:-1
7:39:1
1:-1
0:26:1
-1:-1
1:246:1
-1:1
2:313:1
0:-1
0:149:1
-1:1
0:45:1
-1:1
0:162:1
-1:-1
1:322:1
-1:-1
3:206:1
0:-1
7:42:1
1:1
0:101:2
-1:0
1:312:1
-1:1
0:248:1
-1:-1
0:43:1
-1:1
3:50:1
0:-1
1:267:1
-1:-1
0:336:1
-1:-1
0:79:1
-1:1
0:39:1
-1:1
3:177:1
0:1
1:270:2
-1:-1
6:230:1
1:-1
0:33:1
-1:1
0:57:1
-1:1
0:302:1
-1:-1
0:365:1
-1:1
0:48:1
-1:-1
8:38:1
2:-1
1:220:1
-1:1
1:322:1
-1:-1
0:174:1
-1:1
7:43:1
1:-1
1:128:1
-1:-1
3:291:1
0:1
4:306:2
1:-1
0:42:2
-1:1
0:55:2
-1:0
0:228:1
-1:1
1:265:1
-1:-1
0:172:1
-1:-1
0:31:1
-1:-1
4:55:1
1:-1
1:309:1
-1:1
1:307:1
-1:-1
0:47:1
-1:-1
8:41:1
2:-1
0:220:1
-1:1
0:298:1
-1:1
5:152:1
1:-1
0:46:1
-1:1
0:138:1
-1:1
0:311:1
-1:-1
7:243:1
1:1
0:39:2
-1:0
0:87:1
-1:-1
0:294:1
-1:-1
0:295:1
-1:1
2:44:1
0:-1
7:41:1
1:-1
0:193:1
-1:-1
1:339:1
-1:-1
0:168:1
-1:-1
7:47:1
1:1
0:94:2
-1:0
3:254:1
0:1
0:247:2
-1:-1
0:89:1
-1:-1
7:45:1
1:1
0:43:2
-1:0
1:248:1
-1:1
0:334:1
-1:1
6:96:1
1:1
0:42:2
-1:-1
0:168:1
-1:1
1:318:1
-1:1
0:237:1
-1:1
1:42:1
-1:1
0:64:1
-1:1
2:328:1
0:1
4:300:2
1:-1
4:56:2
1:0
3:47:3
0:0
0:29:3
-1:1
1:240:3
-1:0
1:341:2
-1:-1
3:99:1
0:-1
0:49:1
-1:1
0:179:1
-1:-1
1:316:1
-1:1
0:233:1
-1:-1
2:42:1
0:1
1:80:2
-1:0
0:320:1
-1:1
0:286:1
-1:1
3:53:1
0:1
0:70:2
-1:0
1:300:1
-1:-1
1:321:1
-1:-1
0:52:1
-1:1
7:43:1
1:-1
0:201:1
-1:-1
0:287:1
-1:-1
0:183:1
-1:1
7:45:1
1:-1
0:139:1
-1:-1
0:297:1
-1:1
7:275:1
1:-1
3:46:1
0:-1
0:64:1
-1:1
1:325:1
-1:-1
1:335:1
-1:-1
0:55:1
-1:-1
7:42:1
1:-1
2:187:1
0:1
0:343:2
-1:-1
0:188:1
-1:-1
7:44:1
1:-1
0:45:1
-1:-1
2:179:1
0:1
0:314:2
-1:1
0:213:2
-1:0
7:45:1
1:-1
0:97:1
-1:-1
1:293:1
-1:1
1:308:1
-1:-1
1:58:1
-1:-1
0:60:1
-1:1
0:317:1
-1:1
1:290:1
-1:1
1:53:1
-1:-1
7:40:1
1:1
0:209:2
-1:0
1:330:1
-1:1
4:160:1
1:-1
8:49:1
2:1
1:153:3
-1:0
0:268:2
-1:0
0:259:1
-1:1
3:46:1
0:-1
2:85:1
0:1
0:318:2
-1:0
0:311:1
-1:-1
0:54:1
-1:1
3:49:1
0:-1
2:284:1
0:-1
0:345:1
-1:-1
0:72:1
-1:-1
7:43:1
1:-1
2:216:1
0:1
5:370:2
1:0
4:145:3
1:0
4:47:4
1:-1
0:40:4
-1:0
0:244:3
-1:0
1:305:2
-1:0
4:148:1
1:1
8:45:2
2:0
0:123:3
-1:-1
1:321:2
-1:1
1:265:2
-1:-1
4:40:1
1:1
0:66:2
-1:0
2:314:1
0:-1
4:297:1
1:-1
4:54:1
1:1
0:41:2
-1:0
0:241:1
-1:1
2:310:1
0:-1
4:137:1
1:1
8:46:2
2:0
1:156:3
-1:0
0:257:2
-1:0
0:255:1
-1:1
0:44:1
-1:1
0:82:1
-1:-1
2:317:1
0:1
0:298:2
-1:-1
4:52:1
1:1
0:63:2
-1:0
1:285:1
-1:-1
0:333:1
-1:1
0:59:1
-1:1
8:42:1
2:-1
2:202:1
0:1
0:340:2
-1:0
3:183:1
0:-1
7:42:1
1:1
0:44:2
-1:0
1:250:1
-1:1
0:278:1
-1:1
5:136:1
1:1
8:45:2
2:0
0:143:3
-1:-1
0:290:2
-1:-1
0:243:1
-1:-1
0:45:1
-1:1
4:53:1
1:1
0:271:2
-1:1
0:317:2
-1:0
2:73:1
0:1
3:34:2
0:-1
0:166:2
-1:1
0:327:2
-1:0
3:201:1
0:1
7:42:2
1:0
2:124:3
0:0
0:252:3
-1:-1
4:313:2
1:-1
0:52:2
-1:0
8:33:1
2:-1
1:219:1
-1:1
0:306:1
-1:-1
6:161:1
1:-1
8:47:1
2:1
0:143:3
-1:0
0:332:2
-1:0
1:228:1
-1:1
0:39:1
-1:1
0:63:1
-1:1
0:299:1
-1:-1
4:366:1
1:1
1:44:2
-1:-1
8:41:1
2:1
0:31:3
-1:0
1:252:2
-1:-1
0:327:1
-1:-1
0:94:1
-1:-1
4:44:1
1:1
1:166:2
-1:1
0:308:2
-1:-1
4:201:1
1:-1
7:47:1
1:1
1:118:2
-1:0
1:269:1
-1:-1
0:266:1
-1:1
0:46:1
-1:1
0:99:1
-1:1
1:299:1
-1:-1
7:314:1
1:-1
6:46:1
1:1
0:39:2
-1:-1
3:263:1
0:1
1:282:2
-1:-1
5:159:1
1:1
8:45:2
2:0
0:130:3
-1:-1
0:309:2
-1:0
0:225:1
-1:1
7:38:1
1:1
1:86:2
-1:0
1:264:1
-1:-1
1:333:1
-1:-1
0:48:1
-1:-1
7:37:1
1:-1
3:223:1
0:-1
2:319:1
0:1
3:184:2
0:-1
6:41:2
1:0
0:45:3
-1:0
1:242:2
-1:0
1:260:1
-1:1
3:154:1
0:-1
7:42:1
1:1
0:97:2
-1:0
3:301:1
0:1
0:253:2
-1:-1
7:38:1
1:1
0:53:2
-1:0
2:292:1
0:1
4:319:2
1:-1
3:46:2
0:0
8:36:2
2:-1
2:245:2
0:0
2:296:2
0:-1
3:135:2
0:-1
0:45:2
-1:0
0:143:1
-1:1
1:289:1
-1:-1
0:258:1
-1:-1
0:46:1
-1:1
4:52:1
1:-1
1:140:1
-1:1
2:183:1
0:-1
4:186:1
1:-1
0:121:1
-1:-1
7:44:1
1:-1
0:123:1
-1:-1
3:282:1
0:-1
0:293:1
-1:-1
6:50:1
1:1
0:83:2
-1:0
2:305:1
0:1
4:311:2
1:-1
4:65:2
1:-1
0:47:2
-1:-1
0:37:1
-1:1
1:245:1
-1:1
0:313:1
-1:-1
3:133:1
0:-1
8:45:1
2:-1
0:94:1
-1:1
1:290:1
-1:-1
6:273:1
1:1
4:52:2
1:-1
8:36:2
2:0
3:206:3
0:0
0:315:3
-1:-1
1:142:2
-1:0
8:41:1
2:1
0:138:3
-1:0
1:272:2
-1:0
4:290:1
1:1
5:49:2
1:1
4:45:3
1:-1
1:237:3
-1:-1
0:271:2
-1:-1
3:164:1
0:1
0:46:2
-1:0
0:133:1
-1:1
6:336:1
1:-1
6:220:1
1:-1
5:45:1
1:-1
2:89:1
0:1
2:246:2
0:-1
1:344:2
-1:-1
0:58:1
-1:-1
7:40:1
1:-1
2:232:1
0:-1
0:362:1
-1:-1
2:172:1
0:1
7:43:2
1:-1
0:47:2
-1:0
1:217:1
-1:1
0:247:1
-1:-1
0:208:1
-1:-1
7:46:1
1:1
0:102:2
-1:0
0:299:1
-1:1
3:281:1
0:1
3:52:2
0:1
4:41:3
1:-1
0:237:3
-1:0
1:306:2
-1:0
0:144:1
-1:-1
0:48:1
-1:1
0:201:1
-1:1
1:306:1
-1:-1
0:205:1
-1:-1
0:38:1
-1:1
0:59:1
-1:1
0:258:1
-1:-1
0:307:1
-1:1
2:83:1
0:-1
4:43:1
1:1
1:167:2
-1:-1
1:332:1
-1:-1
0:192:1
-1:1
7:46:1
1:-1
0:131:1
-1:-1
0:274:1
-1:-1
0:304:1
-1:1
0:56:1
-1:1
3:50:1
0:1
1:310:2
-1:1
0:342:2
-1:1
0:98:2
-1:0
7:42:1
1:-1
0:28:1
-1:1
1:231:1
-1:1
1:275:1
-1:-1
0:181:1
-1:1
7:44:1
1:-1
0:123:1
-1:-1
0:264:1
-1:-1
0:277:1
-1:1
3:55:1
0:1
0:84:2
-1:0
0:269:1
-1:1
4:358:1
1:1
0:57:2
-1:0
3:43:1
0:-1
0:262:1
-1:1
0:325:1
-1:1
1:105:1
-1:-1
1:45:1
-1:1
0:152:1
-1:1
0:281:1
-1:-1
1:240:1
-1:-1
3:54:1
0:1
0:52:2
-1:0
0:309:1
-1:1
0:343:1
-1:1
3:54:1
0:-1
7:41:1
1:-1
1:219:1
-1:-1
0:280:1
-1:1
3:198:1
0:1
7:43:2
1:0
0:113:3
-1:0
0:339:2
-1:0
5:286:1
1:1
4:51:2
1:-1
4:42:2
1:-1
0:26:2
-1:1
0:212:2
-1:-1
0:312:1
-1:1
3:164:1
0:1
8:48:2
2:0
1:121:3
-1:-1
0:262:2
-1:-1
0:301:1
-1:1
3:53:1
0:1
0:53:2
-1:0
0:300:1
-1:-1
0:325:1
-1:1
0:52:1
-1:-1
8:41:1
2:-1
0:212:1
-1:1
0:300:1
-1:1
3:181:1
0:1
7:42:2
1:0
0:97:3
-1:0
0:285:2
-1:0
1:283:1
-1:-1
6:52:1
1:-1
3:42:1
0:-1
0:240:1
-1:1
0:335:1
-1:1
4:142:1
1:1
8:44:2
2:0
1:167:3
-1:-1
1:312:2
-1:-1
1:239:1
-1:-1
5:37:1
1:1
0:63:2
-1:0
1:334:1
-1:-1
0:341:1
-1:-1
0:54:1
-1:-1
8:38:1
2:-1
0:27:1
-1:1
0:202:1
-1:1
0:298:1
-1:1
3:167:1
0:1
7:42:2
1:0
1:126:3
-1:0
2:270:2
0:-1
0:286:2
-1:-1
4:46:1
1:1
0:38:2
-1:-1
0:261:1
-1:1
2:283:1
0:1
5:148:2
1:0
8:45:3
2:0
0:138:4
-1:-1
0:316:3
-1:0
0:220:2
-1:0
5:45:1
1:-1
0:89:1
-1:1
1:255:1
-1:1
1:277:1
-1:-1
6:98:1
1:1
8:40:2
2:-1
1:165:2
-1:0
0:291:1
-1:1
5:266:1
1:1
0:38:2
-1:0
0:77:1
-1:-1
1:323:1
-1:-1
1:305:1
-1:-1
1:51:1
-1:1
8:41:1
2:1
1:181:3
-1:-1
0:348:2
-1:-1
4:195:1
1:1
7:43:2
1:0
0:42:3
-1:0
0:211:2
-1:0
3:292:1
0:-1
0:171:1
-1:-1
3:40:1
0:-1
1:82:1
-1:1
2:312:1
0:-1
7:292:1
1:-1
5:48:1
1:1
3:43:2
0:-1
0:254:2
-1:1
0:244:2
-1:-1
6:149:1
1:-1
8:46:1
2:1
0:138:3
-1:-1
2:299:2
0:-1
0:241:2
-1:-1
7:44:1
1:1
0:90:2
-1:0
1:249:1
-1:1
0:326:1
-1:-1
0:72:1
-1:-1
8:42:1
2:-1
0:219:1
-1:1
0:325:1
-1:-1
4:157:1
1:1
8:45:2
2:0
1:134:3
-1:-1
0:326:2
-1:-1
0:233:1
-1:-1
7:41:1
1:-1
0:75:1
-1:1
4:315:1
1:1
4:352:2
1:-1
4:45:2
1:0
8:37:3
2:0
0:28:4
-1:0
0:222:3
-1:-1
0:307:2
-1:-1
5:137:1
1:1
8:44:2
2:0
2:159:3
0:-1
1:275:3
-1:-1
7:238:2
1:-1
0:34:2
-1:0
0:61:1
-1:1
1:301:1
-1:-1
2:304:1
0:-1
0:43:1
-1:1
8:39:1
2:-1
0:167:1
-1:1
0:323:1
-1:1
0:182:1
-1:1
0:36:1
-1:-1
2:99:1
0:1
0:247:2
-1:-1
4:311:1
1:1
2:64:2
0:-1
3:37:2
0:0
0:180:2
-1:1
5:304:2
1:0
0:230:3
-1:0
0:39:2
-1:0
0:68:1
-1:1
0:309:1
-1:-1
1:300:1
-1:1
1:53:1
-1:-1
8:42:1
2:1
0:199:3
-1:0
1:334:2
-1:0
0:123:1
-1:-1
0:54:1
-1:-1
7:40:1
1:-1
0:24:1
-1:-1
1:236:1
-1:1
0:303:1
-1:-1
3:147:1
0:1
0:48:2
-1:0
0:164:1
-1:1
2:310:1
0:1
8:202:2
2:1
0:41:4
-1:0
4:54:3
1:-1
3:276:3
0:0
4:315:3
1:-1
2:65:3
0:-1
0:44:3
-1:0
0:188:2
-1:-1
1:316:1
-1:1
0:171:1
-1:-1
7:46:1
1:1
0:133:2
-1:0
1:226:1
-1:-1
0:290:1
-1:-1
3:56:1
0:-1
7:42:1
1:-1
0:204:1
-1:-1
2:325:1
0:1
0:184:2
-1:0
7:41:1
1:1
1:108:2
-1:0
1:301:1
-1:-1
6:280:1
1:1
0:53:2
-1:-1
3:42:1
0:1
0:254:2
-1:1
0:335:2
-1:0
3:136:1
0:-1
0:47:1
-1:1
0:37:1
-1:1
0:236:1
-1:1
0:265:1
-1:-1
0:170:1
-1:-1
7:48:1
1:1
0:107:2
-1:0
1:302:1
-1:1
0:266:1
-1:-1
3:54:1
0:-1
0:66:1
-1:1
1:288:1
-1:-1
1:311:1
-1:-1
0:55:1
-1:-1
4:41:1
1:-1
2:207:1
0:-1
4:295:1
1:-1
0:191:1
-1:-1
7:47:1
1:-1
1:133:1
-1:-1
2:258:1
0:-1
1:296:1
-1:-1
5:52:1
1:-1
4:41:1
1:-1
0:267:1
-1:1
1:293:1
-1:1
4:139:1
1:-1
6:47:1
1:1
0:131:2
-1:0
2:322:1
0:1
6:227:2
1:1
3:49:3
0:-1
1:91:3
-1:0
2:266:2
0:1
1:361:3
-1:0
1:56:2
-1:1
7:43:2
1:1
0:26:3
-1:0
0:235:2
-1:0
0:272:1
-1:1
0:171:1
-1:1
7:45:1
1:-1
1:95:1
-1:-1
2:290:1
0:-1
6:279:1
1:-1
3:56:1
0:1
0:44:2
-1:-1
2:241:1
0:-1
0:309:1
-1:-1
0:104:1
-1:1
0:40:1
-1:1
0:160:1
-1:1
4:282:1
1:1
3:253:2
0:-1
3:39:2
0:-1
0:93:2
-1:0
0:278:1
-1:1
0:266:1
-1:-1
0:91:1
-1:1
7:49:1
1:1
0:168:2
-1:0
0:341:1
-1:1
3:200:1
0:1
7:43:2
1:0
1:123:3
-1:0
0:279:2
-1:-1
0:284:1
-1:1
1:57:1
-1:1
0:45:1
-1:-1
1:257:1
-1:-1
1:354:1
-1:1
0:101:1
-1:-1
7:46:1
1:1
0:32:2
-1:0
1:269:1
-1:1
0:260:1
-1:-1
0:164:1
-1:-1
8:44:1
2:1
0:145:3
-1:0
0:351:2
-1:1
2:206:2
0:-1
2:40:2
0:0
0:83:2
-1:0
1:270:1
-1:1
0:305:1
-1:-1
1:55:1
-1:-1
7:37:1
1:1
2:217:2
0:0
3:302:2
0:1
2:194:3
0:-1
7:43:3
1:0
2:117:4
0:0
0:273:4
-1:-1
4:283:3
1:-1
3:56:3
0:0
0:63:3
-1:0
1:315:2
-1:1
3:317:2
0:-1
0:52:2
-1:0
8:40:1
2:-1
1:190:1
-1:1
1:313:1
-1:-1
3:186:1
0:1
7:45:2
1:0
0:130:3
-1:0
1:281:2
-1:0
6:309:1
1:-1
0:47:1
-1:-1
0:56:1
-1:-1
0:254:1
-1:1
2:242:1
0:-1
5:145:1
1:-1
8:46:1
2:1
0:130:3
-1:0
0:312:2
-1:1
2:202:2
0:-1
5:37:2
1:1
0:85:3
-1:0
0:235:2
-1:-1
0:331:1
-1:-1
4:53:1
1:1
8:37:2
2:0
1:218:3
-1:0
0:308:2
-1:0
4:159:1
1:1
8:45:2
2:0
0:131:3
-1:-1
0:289:2
-1:0
6:248:1
1:1
6:52:2
1:0
0:45:3
-1:-1
0:243:2
-1:-1
1:314:1
-1:1
5:130:1
1:-1
8:41:1
2:1
2:166:3
0:0
0:299:3
-1:-1
3:257:2
0:1
0:35:3
-1:0
0:85:2
-1:0
2:330:1
0:-1
6:315:1
1:-1
4:45:1
1:-1
8:38:1
2:1
0:27:3
-1:0
1:249:2
-1:1
0:250:2
-1:0
6:145:1
1:1
8:47:2
2:0
0:126:3
-1:0
0:310:2
-1:1
3:215:2
0:-1
0:34:2
-1:1
1:87:2
-1:0
0:274:1
-1:-1
4:311:1
1:1
4:46:2
1:0
7:34:3
1:0
1:218:4
-1:0
1:315:3
-1:1
5:180:3
1:0
6:41:4
1:-1
1:115:4
-1:0
0:288:3
-1:-1
7:270:2
1:-1
0:45:2
-1:-1
1:42:1
-1:-1
0:218:1
-1:1
0:313:1
-1:-1
4:161:1
1:-1
0:48:1
-1:1
1:167:1
-1:-1
0:295:1
-1:1
0:267:1
-1:1
0:38:1
-1:-1
1:84:1
-1:1
1:344:1
-1:-1
4:313:1
1:-1
4:46:1
1:1
8:40:2
2:0
0:22:3
-1:-1
0:260:2
-1:0
0:226:1
-1:-1
5:158:1
1:1
7:46:2
1:0
0:135:3
-1:0
1:317:2
-1:1
6:217:2
1:1
0:34:3
-1:0
1:88:2
-1:-1
0:244:1
-1:1
4:312:1
1:1
4:47:2
1:0
8:36:3
2:0
0:236:4
-1:0
1:290:3
-1:0
4:159:2
1:-1
6:39:2
1:-1
0:115:2
-1:0
0:243:1
-1:1
4:274:1
1:1
0:47:2
-1:-1
8:38:1
2:-1
2:227:1
0:1
0:318:2
-1:0
5:142:1
1:1
5:51:2
1:0
0:170:3
-1:-1
1:274:2
-1:0
8:245:1
2:-1
0:43:1
-1:1
0:78:1
-1:-1
1:167:1
-1:-1
0:164:1
-1:-1
0:177:1
-1:-1
0:140:1
-1:1
7:45:1
1:1
0:45:2
-1:0
1:224:1
-1:1
1:254:1
-1:-1
3:160:1
0:-1
0:49:1
-1:1
0:129:1
-1:1
0:289:1
-1:1
7:233:1
1:1
6:41:2
1:0
0:71:3
-1:0
1:265:2
-1:0
2:273:1
0:-1
0:105:1
-1:-1
0:55:1
-1:-1
7:45:1
1:-1
0:22:1
-1:1
0:265:1
-1:1
0:324:1
-1:-1
0:66:1
-1:-1
3:46:1
0:1
0:150:2
-1:1
2:293:2
0:0
0:209:2
-1:0
0:40:1
-1:-1
0:77:1
-1:-1
0:268:1
-1:-1
0:344:1
-1:-1
1:54:1
-1:-1
7:41:1
1:1
0:210:2
-1:0
0:275:1
-1:1
0:221:1
-1:1
7:46:1
1:-1
0:112:1
-1:-1
2:307:1
0:-1
6:278:1
1:-1
3:56:1
0:1
4:46:2
1:-1
0:258:2
-1:-1
0:356:1
-1:-1
0:92:1
-1:1
1:46:1
-1:1
0:180:1
-1:1
1:329:1
-1:-1
1:237:1
-1:-1
3:37:1
0:-1
0:55:1
-1:1
1:260:1
-1:1
2:307:1
0:-1
4:135:1
1:-1
6:49:1
1:1
0:130:2
-1:0
3:318:1
0:1
6:219:2
1:1
3:43:3
0:0
0:53:3
-1:0
2:295:2
0:0
2:336:2
0:-1
0:51:2
-1:0
7:42:1
1:-1
2:220:1
0:-1
0:287:1
-1:1
0:177:1
-1:-1
8:44:1
2:-1
0:108:1
-1:1
1:293:1
-1:1
4:279:1
1:-1
3:51:1
0:1
7:40:2
1:-1
1:203:2
-1:0
1:306:1
-1:-1
3:187:1
0:-1
8:45:1
2:1
0:124:3
-1:0
2:267:2
0:0
0:323:2
-1:0
2:57:1
0:1
0:52:2
-1:0
0:317:1
-1:-1
0:367:1
-1:1
0:54:1
-1:-1
7:41:1
1:-1
0:26:1
-1:1
0:230:1
-1:1
3:277:1
0:1
3:169:2
0:-1
8:46:2
2:-1
1:116:2
-1:0
1:278:1
-1:-1
4:264:1
1:-1
3:51:1
0:1
0:65:2
-1:0
2:265:1
0:1
4:344:2
1:0
3:50:3
0:0
7:39:3
1:-1
0:267:3
-1:0
0:297:2
-1:0
4:128:1
1:1
8:46:2
2:0
1:128:3
-1:0
0:284:2
-1:-1
0:256:1
-1:-1
0:53:1
-1:1
2:51:1
0:1
1:266:2
-1:-1
1:323:1
-1:1
0:108:1
-1:-1
0:45:1
-1:1
1:169:1
-1:1
0:335:1
-1:-1
3:214:1
0:-1
7:43:1
1:1
0:98:2
-1:0
0:320:1
-1:-1
0:312:1
-1:-1
0:52:1
-1:1
3:49:1
0:1
1:57:2
-1:1
0:282:2
-1:0
0:284:1
-1:1
0:70:1
-1:1
8:41:1
2:-1
0:169:1
-1:-1
1:313:1
-1:-1
3:178:1
0:-1
7:43:1
1:1
0:110:2
-1:0
1:265:1
-1:1
0:301:1
-1:1
0:50:1
-1:1
0:80:1
-1:-1
2:320:1
0:-1
4:297:1
1:-1
4:49:1
1:1
8:39:2
2:0
0:202:3
-1:-1
2:295:2
0:-1
3:180:2
0:0
7:43:2
1:0
0:114:3
-1:0
2:284:2
0:-1
0:303:2
-1:-1
6:48:1
1:1
5:43:2
1:-1
0:268:2
-1:0
0:316:1
-1:-1
0:123:1
-1:1
5:46:1
1:1
2:194:2
0:0
2:301:2
0:-1
0:237:2
-1:1
0:33:2
-1:-1
0:58:1
-1:1
0:221:1
-1:1
2:316:1
0:-1
5:131:1
1:-1
8:45:1
2:-1
0:123:1
-1:1
0:255:1
-1:1
5:281:1
1:1
0:46:2
-1:0
0:64:1
-1:1
0:281:1
-1:-1
0:331:1
-1:1
0:47:1
-1:-1
7:38:1
1:-1
1:179:1
-1:-1
0:298:1
-1:-1
3:195:1
0:1
7:43:2
1:0
0:99:3
-1:0
0:291:2
-1:0
7:273:1
1:1
6:44:2
1:0
5:45:3
1:-1
1:204:3
-1:0
0:336:2
-1:-1
0:135:1
-1:-1
8:44:1
2:1
2:168:3
0:0
1:331:3
-1:-1
0:200:2
-1:-1
7:43:1
1:-1
0:105:1
-1:-1
0:350:1
-1:1
6:284:1
1:1
6:46:2
1:-1
0:47:2
-1:-1
0:50:1
-1:-1
1:248:1
-1:1
1:261:1
-1:-1
3:131:1
0:-1
0:50:1
-1:1
0:149:1
-1:-1
0:287:1
-1:-1
1:249:1
-1:-1
0:35:1
-1:-1
0:55:1
-1:1
1:308:1
-1:1
4:340:1
1:1
6:48:2
1:0
0:39:3
-1:-1
2:240:2
0:1
0:322:3
-1:0
5:103:2
1:0
0:48:3
-1:0
0:127:2
-1:0
1:259:1
-1:1
7:270:1
1:1
6:46:2
1:0
3:41:3
0:-1
1:241:3
-1:1
1:323:3
-1:-1
0:123:2
-1:-1
0:44:1
-1:1
1:157:1
-1:-1
0:323:1
-1:1
0:207:1
-1:1
7:43:1
1:1
0:100:2
-1:0
1:342:1
-1:-1
7:274:1
1:-1
6:51:1
1:1
0:49:2
-1:-1
0:32:1
-1:1
1:249:1
-1:-1
0:258:1
-1:-1
0:117:1
-1:-1
5:46:1
1:1
0:168:2
-1:-1
0:233:1
-1:1
6:257:1
1:1
0:42:2
-1:-1
0:49:1
-1:1
1:274:1
-1:1
1:283:1
-1:1
0:106:1
-1:-1
1:42:1
-1:1
0:134:1
-1:-1
0:314:1
-1:1
0:213:1
-1:1
7:49:1
1:1
1:115:2
-1:0
1:262:1
-1:-1
6:293:1
1:-1
4:52:1
1:-1
0:43:1
-1:1
1:263:1
-1:1
0:306:1
-1:1
4:150:1
1:1
0:45:2
-1:-1
0:154:1
-1:1
0:334:1
-1:1
0:202:1
-1:1
7:44:1
1:1
0:101:2
-1:0
2:338:1
0:-1
0:294:1
-1:1
4:44:1
1:-1
0:53:1
-1:1
0:219:1
-1:1
1:298:1
-1:-1
0:148:1
-1:-1
7:47:1
1:1
1:134:2
-1:0
0:288:1
-1:-1
7:262:1
1:-1
5:45:1
1:-1
0:63:1
-1:1
1:305:1
-1:-1
0:317:1
-1:-1
0:52:1
-1:-1
7:45:1
1:-1
0:210:1
-1:1
1:301:1
-1:1
0:180:1
-1:-1
7:50:1
1:1
0:114:2
-1:0
1:276:1
-1:1
6:282:1
1:-1
4:51:1
1:-1
7:40:1
1:1
1:269:2
-1:0
1:302:1
-1:-1
3:170:1
0:1
7:47:2
1:0
0:144:3
-1:0
0:313:2
-1:0
5:219:1
1:1
3:44:2
0:1
1:84:3
-1:0
1:317:2
-1:-1
6:343:1
1:-1
0:54:1
-1:-1
7:36:1
1:-1
0:28:1
-1:1
0:208:1
-1:-1
0:327:1
-1:-1
3:148:1
0:1
0:46:2
-1:0
1:180:1
-1:-1
1:308:1
-1:1
0:199:1
-1:-1
0:41:1
-1:-1
0:61:1
-1:1
1:302:1
-1:-1
2:317:1
0:-1
3:55:1
0:1
6:42:2
1:-1
1:224:2
-1:0
2:338:1
0:-1
3:130:1
0:-1
8:46:1
2:1
0:140:3
-1:0
0:256:2
-1:-1
1:287:1
-1:-1
4:54:1
1:-1
0:43:1
-1:1
0:278:1
-1:1
2:315:1
0:1
2:138:2
0:-1
3:39:2
0:0
0:178:2
-1:1
0:318:2
-1:-1
0:217:1
-1:-1
7:46:1
1:1
1:125:2
-1:0
0:293:1
-1:-1
0:299:1
-1:1
3:54:1
0:1
0:52:2
-1:0
1:214:1
-1:1
1:298:1
-1:-1
0:184:1
-1:-1
7:43:1
1:-1
1:103:1
-1:-1
1:313:1
-1:1
1:262:1
-1:-1
1:57:1
-1:1
0:74:1
-1:1
1:297:1
-1:-1
4:303:1
1:1
4:51:2
1:0
0:41:3
-1:0
1:207:2
-1:1
2:372:2
0:0
4:138:2
1:-1
8:46:2
2:0
2:172:3
0:0
5:307:3
1:0
3:209:4
0:-1
3:44:4
0:0
0:64:4
-1:0
0:318:3
-1:-1
1:338:2
-1:-1
0:51:1
-1:-1
8:38:1
2:-1
0:181:1
-1:1
1:333:1
-1:-1
3:185:1
0:-1
8:49:1
2:1
0:127:3
-1:0
3:300:2
0:-1
6:295:2
1:-1
0:42:2
-1:0
0:55:1
-1:-1
1:47:1
-1:1
3:235:1
0:-1
0:273:1
-1:-1
0:109:1
-1:1
8:45:1
2:1
0:150:3
-1:0
1:310:2
-1:1
1:201:2
-1:-1
5:34:1
1:-1
0:78:1
-1:1
1:273:1
-1:-1
1:300:1
-1:-1
4:52:1
1:1
8:37:2
2:0
1:220:3
-1:0
3:344:2
0:0
4:140:2
1:0
8:46:3
2:0
1:159:4
-1:-1
0:263:3
-1:-1
5:244:2
1:0
0:46:3
-1:0
0:60:2
-1:-1
0:327:1
-1:1
3:328:1
0:1
3:52:2
0:0
8:36:2
2:-1
1:209:2
-1:0
0:324:1
-1:-1
3:168:1
0:1
7:45:2
1:0
1:114:3
-1:0
1:302:2
-1:0
3:307:1
0:1
0:48:2
-1:1
1:49:2
-1:0
0:51:1
-1:1
2:256:1
0:-1
1:286:1
-1:-1
0:107:1
-1:-1
8:46:1
2:1
4:146:3
1:0
0:321:4
-1:-1
4:197:3
1:-1
8:47:3
2:0
0:133:4
-1:0
1:300:3
-1:0
7:227:2
1:-1
0:45:2
-1:0
0:55:1
-1:1
0:300:1
-1:1
4:350:1
1:1
4:49:2
1:0
8:38:3
2:0
1:241:4
-1:0
0:239:3
-1:-1
5:162:2
1:-1
8:45:2
2:-1
0:103:2
-1:0
2:327:1
0:1
0:269:2
-1:0
0:41:1
-1:-1
0:56:1
-1:1
0:301:1
-1:-1
3:342:1
0:1
0:47:2
-1:-1
7:39:1
1:-1
2:216:1
0:-1
1:334:1
-1:1
6:169:1
1:1
0:46:2
-1:0
0:38:1
-1:-1
0:228:1
-1:1
1:256:1
-1:-1
0:192:1
-1:1
0:37:1
-1:1
0:62:1
-1:1
2:292:1
0:1
4:290:2
1:-1
4:44:2
1:0
8:37:3
2:0
1:213:4
-1:0
2:302:3
0:-1
6:132:3
1:-1
7:47:3
1:0
2:176:4
0:-1
1:270:4
-1:-1
8:248:3
2:-1
0:39:3
-1:0
0:76:2
-1:0
1:284:1
-1:-1
0:280:1
-1:-1
0:49:1
-1:-1
8:42:1
2:-1
0:210:1
-1:1
1:315:1
-1:1
5:176:1
1:-1
0:45:1
-1:1
0:147:1
-1:1
0:291:1
-1:-1
6:235:1
1:1
0:35:2
-1:1
0:86:2
-1:0
0:156:1
-1:-1
2:158:1
0:1
0:148:2
-1:-1
7:172:1
1:1
6:46:2
1:0
6:46:3
1:-1
0:32:3
-1:-1
1:263:2
-1:0
2:281:1
0:-1
0:88:1
-1:1
1:40:1
-1:1
0:140:1
-1:1
0:297:1
-1:-1
6:205:1
1:1
0:37:2
-1:-1
1:95:1
-1:-1
0:277:1
-1:-1
6:306:1
1:-1
4:50:1
1:-1
8:36:1
2:1
3:229:3
0:0
2:328:3
0:0
2:171:3
0:-1
7:40:3
1:-1
1:100:3
-1:0
1:290:2
-1:-1
6:266:1
1:-1
0:53:1
-1:-1
0:41:1
-1:-1
0:222:1
-1:1
0:324:1
-1:1
3:147:1
0:-1
0:47:1
-1:1
1:158:1
-1:1
3:293:1
0:-1
8:261:1
2:1
0:43:3
-1:0
2:86:2
0:-1
2:342:2
0:0
0:265:2
-1:0
2:80:1
0:-1
8:42:1
2:-1
0:42:1
-1:1
1:238:1
-1:1
0:267:1
-1:-1
0:186:1
-1:1
7:47:1
1:-1
1:123:1
-1:-1
0:266:1
-1:-1
0:273:1
-1:1
2:54:1
0:-1
0:45:1
-1:-1
0:267:1
-1:-1
0:312:1
-1:-1
0:99:1
-1:1
0:43:1
-1:1
0:147:1
-1:-1
1:310:1
-1:1
0:265:1
-1:-1
2:48:1
0:-1
1:66:1
-1:1
0:268:1
-1:-1
0:263:1
-1:1
5:107:1
1:1
4:49:2
1:0
1:170:3
-1:0
0:333:2
-1:-1
0:209:1
-1:1
7:47:1
1:-1
0:124:1
-1:-1
0:319:1
-1:1
0:271:1
-1:1
3:54:1
0:1
0:78:2
-1:0
0:342:1
-1:-1
0:304:1
-1:-1
4:54:1
1:1
0:56:2
-1:0
0:238:1
-1:1
1:249:1
-1:1
3:177:1
0:1
8:40:2
2:-1
0:116:2
-1:1
1:283:2
-1:1
0:273:2
-1:-1
3:55:1
0:1
1:85:2
-1:0
2:312:1
0:-1
0:292:1
-1:-1
4:54:1
1:1
0:64:2
-1:0
1:320:1
-1:-1
4:321:1
1:-1
0:53:1
-1:-1
7:41:1
1:-1
1:165:1
-1:1
0:268:1
-1:-1
1:211:1
-1:1
3:45:1
0:-1
0:89:1
-1:1
0:291:1
-1:-1
5:330:1
1:-1
4:52:1
1:-1
7:39:1
1:-1
0:248:1
-1:-1
2:305:1
0:1
4:157:2
1:0
7:50:3
1:0
0:148:4
-1:0
3:340:3
0:0
0:225:3
-1:-1
3:43:2
0:-1
0:56:2
-1:0
0:227:1
-1:1
1:271:1
-1:-1
3:196:1
0:-1
7:42:1
1:-1
0:107:1
-1:-1
2:279:1
0:-1
0:301:1
-1:-1
0:51:1
-1:1
0:45:1
-1:-1
2:304:1
0:1
1:298:2
-1:-1
2:91:1
0:1
7:43:2
1:0
1:169:3
-1:0
1:351:2
-1:-1
3:171:1
0:-1
7:42:1
1:1
2:117:2
0:0
0:256:2
-1:-1
4:282:1
1:-1
3:51:1
0:1
7:39:2
1:-1
2:262:2
0:0
1:316:2
-1:0
4:141:1
1:1
8:46:2
2:0
0:155:3
-1:0
1:293:2
-1:-1
1:277:1
-1:-1
0:43:1
-1:-1
0:64:1
-1:-1
0:322:1
-1:-1
1:332:1
-1:1
0:57:1
-1:-1
8:41:1
2:-1
0:25:1
-1:-1
1:246:1
-1:1
1:266:1
-1:-1
3:190:1
0:-1
7:43:1
1:1
0:116:2
-1:0
0:269:1
-1:-1
0:306:1
-1:1
3:54:1
0:1
1:80:2
-1:-1
2:314:1
0:1
0:282:2
-1:-1
5:51:1
1:1
0:67:2
-1:0
0:296:1
-1:-1
1:321:1
-1:1
0:47:1
-1:1
7:42:1
1:-1
0:186:1
-1:-1
1:284:1
-1:1
0:212:1
-1:-1
0:32:1
-1:-1
1:87:1
-1:-1
1:319:1
-1:1
1:291:1
-1:-1
6:53:1
1:-1
2:40:1
0:-1
0:253:1
-1:1
0:294:1
-1:1
5:136:1
1:-1
8:47:1
2:1
1:139:3
-1:0
5:350:2
1:-1
0:232:2
-1:-1
5:40:1
1:-1
0:55:1
-1:1
1:230:1
-1:1
2:264:1
0:-1
3:203:1
0:1
7:43:2
1:0
0:109:3
-1:0
0:277:2
-1:-1
0:306:1
-1:1
0:48:1
-1:1
0:55:1
-1:1
1:330:1
-1:-1
5:284:1
1:1
4:46:2
1:0
8:38:3
2:0
1:212:4
-1:-1
0:322:3
-1:-1
6:168:2
1:0
8:48:3
2:0
1:162:4
-1:0
0:263:3
-1:-1
0:234:2
-1:-1
0:39:1
-1:-1
0:84:1
-1:1
2:335:1
0:-1
3:286:1
0:-1
0:44:1
-1:1
0:59:1
-1:1
0:313:1
-1:1
0:343:1
-1:1
0:47:1
-1:-1
8:40:1
2:-1
1:181:1
-1:1
2:325:1
0:1
3:202:2
0:-1
7:43:2
1:0
0:43:3
-1:0
0:222:2
-1:0
0:274:1
-1:1
0:200:1
-1:1
3:39:1
0:-1
0:55:1
-1:1
2:325:1
0:1
4:357:2
1:0
0:47:3
-1:0
8:36:2
2:-1
2:231:2
0:0
0:309:2
-1:-1
5:123:1
1:1
0:45:2
-1:0
1:163:1
-1:-1
0:299:1
-1:-1
7:233:1
1:1
0:36:2
-1:1
0:56:2
-1:0
0:285:1
-1:1
3:293:1
0:1
0:86:2
-1:1
0:42:2
-1:1
2:188:2
0:1
0:299:3
-1:-1
0:202:2
-1:0
7:47:1
1:-1
0:98:1
-1:-1
1:322:1
-1:-1
6:271:1
1:-1
6:46:1
1:1
0:47:2
-1:-1
0:257:1
-1:-1
0:332:1
-1:-1
0:124:1
-1:-1
6:45:1
1:1
0:32:2
-1:-1
0:234:1
-1:1
1:256:1
-1:-1
3:182:1
0:-1
6:41:1
1:1
0:93:2
-1:-1
1:278:1
-1:1
6:291:1
1:-1
6:48:1
1:1
4:45:2
1:-1
2:210:2
0:1
2:312:3
0:-1
4:116:3
1:-1
0:48:3
-1:0
1:167:2
-1:0
0:284:1
-1:-1
5:237:1
1:1
6:42:2
1:1
0:73:3
-1:0
2:264:2
0:-1
0:263:2
-1:-1
0:100:1
-1:1
6:38:1
1:1
1:160:2
-1:0
0:314:1
-1:-1
0:197:1
-1:-1
7:45:1
1:1
2:90:2
0:0
0:122:2
-1:-1
0:130:1
-1:1
0:111:1
-1:1
0:161:1
-1:1
5:65:1
1:1
3:38:2
0:-1
0:30:2
-1:1
2:251:2
0:0
5:354:2
1:-1
3:101:2
0:0
7:44:2
1:-1
0:212:2
-1:0
0:291:1
-1:1
0:209:1
-1:1
7:46:1
1:1
0:98:2
-1:0
0:335:1
-1:-1
0:280:1
-1:1
6:53:1
1:-1
0:47:1
-1:-1
0:30:1
-1:-1
0:265:1
-1:-1
2:285:1
0:1
4:125:2
1:-1
0:47:2
-1:0
1:180:1
-1:-1
0:278:1
-1:-1
8:239:1
2:1
3:41:3
0:0
0:53:3
-1:0
0:323:2
-1:0
1:314:1
-1:1
4:53:1
1:-1
7:39:1
1:1
0:234:2
-1:0
0:310:1
-1:1
3:160:1
0:1
8:50:2
2:0
0:132:3
-1:0
0:261:2
-1:0
0:287:1
-1:1
3:56:1
0:1
0:81:2
-1:0
0:310:1
-1:1
5:338:1
1:1
0:55:2
-1:-1
2:42:1
0:-1
2:266:1
0:1
0:336:2
-1:0
0:110:1
-1:-1
1:49:1
-1:1
0:174:1
-1:1
1:328:1
-1:-1
0:227:1
-1:-1
0:42:1
-1:-1
0:51:1
-1:1
0:238:1
-1:1
0:324:1
-1:1
0:161:1
-1:1
7:45:1
1:-1
1:139:1
-1:-1
0:291:1
-1:1
4:258:1
1:1
2:45:2
0:0
0:63:2
-1:0
1:304:1
-1:-1
3:306:1
0:-1
0:52:1
-1:-1
6:41:1
1:-1
0:195:1
-1:1
2:312:1
0:1
3:178:2
0:-1
7:49:2
1:0
2:119:3
0:0
0:240:3
-1:0
0:297:2
-1:0
2:54:1
0:1
0:53:2
-1:0
0:316:1
-1:-1
1:349:1
-1:1
0:57:1
-1:1
6:42:1
1:-1
0:206:1
-1:1
0:315:1
-1:1
3:187:1
0:1
7:42:2
1:0
0:99:3
-1:0
2:330:2
0:0
4:301:2
1:-1
0:50:2
-1:1
0:57:2
-1:0
0:219:1
-1:1
1:310:1
-1:1
0:182:1
-1:-1
7:44:1
1:-1
1:138:1
-1:-1
0:286:1
-1:1
6:257:1
1:1
0:49:2
-1:-1
2:56:1
0:-1
0:314:1
-1:-1
3:306:1
0:1
4:50:2
1:0
0:42:3
-1:0
0:219:2
-1:1
2:354:2
0:0
4:120:2
1:-1
7:45:2
1:0
1:135:3
-1:-1
2:262:2
0:-1
0:270:2
-1:-1
0:50:1
-1:1
2:48:1
0:1
1:317:2
-1:1
0:302:2
-1:0
0:102:1
-1:-1
7:39:1
1:1
1:140:2
-1:0
1:340:1
-1:-1
2:209:1
0:-1
0:36:1
-1:-1
1:102:1
-1:-1
1:307:1
-1:1
4:329:1
1:1
4:49:2
1:0
7:42:3
1:0
0:32:4
-1:0
1:238:3
-1:0
0:301:2
-1:0
4:152:1
1:1
7:44:2
1:0
0:135:3
-1:0
0:297:2
-1:0
0:240:1
-1:1
5:39:1
1:1
0:68:2
-1:0
1:301:1
-1:1
4:301:1
1:1
4:48:2
1:0
7:38:3
1:0
6:221:4
1:0
1:338:5
-1:-1
3:144:4
0:0
6:43:4
1:0
0:135:5
-1:0
2:249:4
0:0
0:283:4
-1:-1
0:47:3
-1:1
0:64:3
-1:0
0:316:2
-1:-1
0:323:1
-1:-1
0:47:1
-1:-1
7:38:1
1:-1
1:182:1
-1:-1
0:332:1
-1:-1
4:178:1
1:1
7:43:2
1:0
1:120:3
-1:0
0:289:2
-1:-1
1:311:1
-1:1
0:44:1
-1:1
0:56:1
-1:1
0:243:1
-1:1
3:267:1
0:-1
3:178:1
0:-1
5:43:1
1:1
1:71:2
-1:-1
0:310:1
-1:-1
6:285:1
1:1
5:45:2
1:0
0:47:3
-1:-1
1:253:2
-1:-1
1:293:1
-1:-1
0:107:1
-1:-1
0:39:1
-1:1
1:172:1
-1:1
1:299:1
-1:-1
5:239:1
1:-1
0:35:1
-1:-1
0:83:1
-1:1
0:295:1
-1:-1
0:299:1
-1:1
1:49:1
-1:-1
7:37:1
1:1
0:191:2
-1:1
1:348:2
-1:-1
4:161:1
1:-1
7:42:1
1:1
0:116:2
-1:0
1:289:1
-1:1
0:290:1
-1:-1
0:45:1
-1:1
0:91:1
-1:1
0:289:1
-1:1
6:350:1
1:-1
4:47:1
1:-1
7:38:1
1:1
0:24:2
-1:1
0:247:2
-1:-1
0:276:1
-1:1
3:158:1
0:-1
6:39:1
1:-1
0:115:1
-1:-1
2:294:1
0:1
0:249:2
-1:0
6:45:1
1:1
1:83:2
-1:0
0:270:1
-1:-1
0:316:1
-1:1
0:49:1
-1:-1
7:38:1
1:-1
1:220:1
-1:-1
0:300:1
-1:1
0:188:1
-1:1
6:42:1
1:1
1:115:2
-1:0
2:269:1
0:-1
6:269:1
1:-1
6:50:1
1:1
0:47:2
-1:-1
0:249:1
-1:-1
1:280:1
-1:1
3:143:1
0:1
5:49:2
1:0
0:129:3
-1:0
4:341:2
1:-1
4:237:2
1:1
0:42:3
-1:0
0:53:2
-1:-1
0:90:1
-1:-1
0:286:1
-1:1
7:281:1
1:-1
3:43:1
0:-1
6:52:1
1:1
1:5:2
-1:-1
0:239:1
-1:-1
0:277:1
-1:-1
0:170:1
-1:1
0:46:1
-1:1
0:92:1
-1:-1
1:298:1
-1:-1
6:279:1
1:1
0:52:2
-1:0
0:41:1
-1:1
1:246:1
-1:1
0:302:1
-1:-1
3:128:1
0:1
2:50:2
0:0
2:186:2
0:-1
0:304:2
-1:-1
3:237:1
0:-1
0:41:1
-1:-1
0:70:1
-1:1
0:321:1
-1:-1
0:280:1
-1:1
3:62:1
0:-1
6:44:1
1:-1
0:170:1
-1:-1
1:349:1
-1:-1
1:175:1
-1:1
7:44:1
1:1
0:120:2
-1:0
2:270:1
0:-1
0:305:1
-1:-1
3:57:1
0:-1
0:82:1
-1:1
0:328:1
-1:1
0:318:1
-1:-1
3:56:1
0:1
0:64:2
-1:0
1:229:1
-1:1
2:273:1
0:-1
0:170:1
-1:-1
7:46:1
1:1
0:114:2
-1:0
1:273:1
-1:1
2:274:1
0:-1
0:51:1
-1:1
3:45:1
0:1
1:250:2
-1:1
1:308:2
-1:-1
0:111:1
-1:-1
7:47:1
1:1
0:231:2
-1:0
1:331:1
-1:-1
4:163:1
1:-1
6:48:1
1:1
0:146:2
-1:0
1:310:1
-1:-1
0:222:1
-1:-1
3:54:1
0:1
0:85:2
-1:0
0:310:1
-1:1
5:322:1
1:-1
4:52:1
1:-1
6:40:1
1:1
1:216:2
-1:0
0:342:1
-1:-1
3:150:1
0:1
0:52:2
-1:0
0:179:1
-1:-1
0:333:1
-1:1
0:220:1
-1:-1
0:43:1
-1:-1
0:54:1
-1:1
0:245:1
-1:1
1:282:1
-1:1
0:179:1
-1:-1
0:46:1
-1:-1
2:135:1
0:1
0:290:2
-1:-1
0:256:1
-1:-1
4:50:1
1:1
3:94:2
0:0
1:300:2
-1:-1
1:294:1
-1:-1
0:49:1
-1:-1
0:37:1
-1:-1
1:280:1
-1:1
0:299:1
-1:-1
6:128:1
1:-1
7:39:1
1:-1
3:140:1
0:-1
3:314:1
0:-1
0:210:1
-1:1
2:46:1
0:-1
0:83:1
-1:1
0:288:1
-1:-1
0:328:1
-1:-1
4:54:1
1:-1
6:38:1
1:1
0:227:2
-1:0
1:341:1
-1:1
3:158:1
0:1
7:47:2
1:0
0:159:3
-1:0
1:359:2
-1:0
3:221:1
0:-1
7:42:1
1:1
0:47:2
-1:0
0:251:1
-1:1
1:263:1
-1:1
3:174:1
0:-1
7:43:1
1:-1
1:123:1
-1:-1
1:280:1
-1:-1
0:288:1
-1:1
5:48:1
1:1
0:43:2
-1:-1
0:266:1
-1:-1
0:318:1
-1:1
2:88:1
0:1
5:38:2
1:0
2:181:3
0:0
0:286:3
-1:-1
2:217:2
0:-1
0:36:2
-1:-1
2:56:1
0:-1
1:285:1
-1:-1
0:292:1
-1:-1
0:72:1
-1:1
0:40:1
-1:1
0:162:1
-1:1
0:327:1
-1:1
3:220:1
0:-1
7:42:1
1:1
0:95:2
-1:0
1:300:1
-1:-1
6:309:1
1:-1
5:51:1
1:1
7:36:2
1:-1
0:239:2
-1:-1
0:327:1
-1:1
4:148:1
1:1
7:44:2
1:-1
0:41:2
-1:0
0:243:1
-1:1
0:286:1
-1:-1
4:127:1
1:1
7:46:2
1:0
1:169:3
-1:0
1:295:2
-1:-1
2:249:1
0:-1
0:32:1
-1:-1
1:82:1
-1:-1
2:318:1
0:1
0:281:2
-1:-1
0:50:1
-1:1
0:58:1
-1:-1
0:306:1
-1:1
2:317:1
0:1
0:45:2
-1:0
7:39:1
1:-1
0:169:1
-1:1
1:313:1
-1:1
3:191:1
0:-1
0:31:1
-1:-1
0:85:1
-1:1
1:308:1
-1:-1
6:315:1
1:-1
6:45:1
1:1
0:40:2
-1:-1
0:278:1
-1:1
1:311:1
-1:1
1:135:1
-1:-1
0:44:1
-1:1
2:148:1
0:-1
0:361:1
-1:1
3:228:1
0:-1
7:47:1
1:1
0:43:2
-1:0
0:244:1
-1:-1
2:263:1
0:-1
4:182:1
1:1
7:44:2
1:0
0:117:3
-1:0
0:290:2
-1:0
0:295:1
-1:-1
0:47:1
-1:1
0:78:1
-1:1
0:331:1
-1:-1
6:283:1
1:1
6:45:2
1:0
0:47:3
-1:-1
0:239:2
-1:-1
0:286:1
-1:1
5:124:1
1:-1
0:49:1
-1:1
2:134:1
0:-1
1:312:1
-1:-1
1:234:1
-1:-1
0:42:1
-1:1
1:87:1
-1:1
1:315:1
-1:1
7:295:1
1:-1
6:48:1
1:1
4:45:2
1:-1
0:254:2
-1:1
0:302:2
-1:0
5:130:1
1:-1
0:45:1
-1:1
1:146:1
-1:1
0:356:1
-1:-1
5:227:1
1:-1
7:34:1
1:1
0:56:2
-1:0
1:249:1
-1:1
4:298:1
1:-1
4:147:1
1:1
5:48:2
1:0
2:173:3
0:-1
0:274:3
-1:0
7:248:2
1:-1
0:35:2
-1:0
1:80:1
-1:-1
2:297:1
0:-1
6:275:1
1:-1
6:49:1
1:-1
0:46:1
-1:-1
2:241:1
0:-1
1:276:1
-1:-1
3:109:1
0:-1
0:47:1
-1:1
0:124:1
-1:1
0:259:1
-1:-1
1:244:1
-1:1
5:47:1
1:-1
0:47:1
-1:-1
0:276:1
-1:-1
0:302:1
-1:-1
0:87:1
-1:-1
6:47:1
1:1
2:165:2
0:-1
2:292:2
0:-1
0:212:2
-1:-1
0:41:1
-1:1
0:55:1
-1:1
1:167:1
-1:1
2:128:1
0:-1
0:119:1
-1:1
0:167:1
-1:1
4:58:1
1:1
0:36:2
-1:-1
0:31:1
-1:1
0:239:1
-1:1
0:310:1
-1:-1
3:140:1
0:1
0:45:2
-1:0
1:132:1
-1:-1
0:316:1
-1:-1
5:269:1
1:1
4:43:2
1:1
0:61:3
-1:0
0:304:2
-1:0
0:288:1
-1:1
4:52:1
1:-1
7:38:1
1:-1
0:201:1
-1:1
0:292:1
-1:-1
3:174:1
0:1
0:46:2
-1:0
2:126:1
0:-1
1:289:1
-1:-1
0:274:1
-1:-1
3:57:1
0:-1
3:86:1
0:1
2:330:2
0:-1
0:291:2
-1:-1
5:51:1
1:1
0:53:2
-1:0
0:290:1
-1:1
0:332:1
-1:1
0:59:1
-1:-1
6:44:1
1:-1
4:215:1
1:1
5:365:2
1:-1
3:145:2
0:0
0:46:2
-1:0
0:36:1
-1:-1
0:242:1
-1:1
2:256:1
0:-1
0:188:1
-1:1
6:45:1
1:1
0:98:2
-1:-1
0:312:1
-1:1
2:283:1
0:1
0:52:2
-1:-1
3:51:1
0:1
1:259:2
-1:-1
0:310:1
-1:1
0:88:1
-1:-1
6:48:1
1:1
1:167:2
-1:0
1:332:1
-1:-1
0:190:1
-1:-1
7:40:1
1:-1
0:129:1
-1:-1
1:288:1
-1:1
0:292:1
-1:-1
3:53:1
0:1
0:80:2
-1:0
2:341:1
0:-1
0:297:1
-1:-1
3:53:1
0:1
0:68:2
-1:0
1:290:1
-1:-1
1:335:1
-1:-1
1:54:1
-1:1
6:41:1
1:1
2:218:2
0:-1
1:321:2
-1:1
0:180:2
-1:-1
7:45:1
1:-1
0:44:1
-1:-1
0:261:1
-1:1
1:297:1
-1:-1
3:165:1
0:-1
0:43:1
-1:-1
1:115:1
-1:-1
1:310:1
-1:-1
0:266:1
-1:1
0:52:1
-1:1
3:49:1
0:1
0:236:2
-1:-1
0:305:1
-1:1
1:121:1
-1:1
0:46:1
-1:1
0:164:1
-1:-1
1:294:1
-1:1
0:242:1
-1:-1
1:38:1
-1:-1
0:61:1
-1:1
0:301:1
-1:-1
0:306:1
-1:1
0:88:1
-1:-1
6:37:1
1:-1
1:182:1
-1:1
0:316:1
-1:-1
0:210:1
-1:-1
0:45:1
-1:-1
1:101:1
-1:1
1:305:1
-1:-1
3:291:1
0:1
0:48:2
-1:0
2:41:1
0:1
2:220:2
0:1
2:347:3
0:-1
3:148:3
0:0
7:45:3
1:0
0:38:4
-1:-1
1:260:3
-1:0
1:269:2
-1:0
3:182:1
0:-1
7:44:1
1:-1
0:95:1
-1:1
2:323:1
0:1
1:256:2
-1:-1
0:46:1
-1:-1
0:54:1
-1:-1
0:303:1
-1:1
4:327:1
1:-1
3:52:1
0:1
7:39:2
1:-1
4:275:2
1:0
0:306:3
-1:-1
4:126:2
1:0
7:49:3
1:0
2:125:4
0:-1
1:325:4
-1:-1
0:249:3
-1:-1
0:49:2
-1:1
2:50:2
0:0
0:303:2
-1:-1
0:336:1
-1:-1
0:67:1
-1:1
7:40:1
1:-1
0:170:1
-1:-1
0:343:1
-1:-1
4:193:1
1:1
7:42:2
1:-1
0:115:2
-1:0
0:306:1
-1:1
0:324:1
-1:1
0:52:1
-1:1
0:56:1
-1:-1
0:255:1
-1:1
0:310:1
-1:1
0:118:1
-1:1
7:44:1
1:1
1:138:2
-1:0
0:332:1
-1:-1
2:227:1
0:1
0:34:2
-1:0
0:55:1
-1:1
2:304:1
0:1
4:332:2
1:-1
1:46:2
-1:0
7:40:1
1:1
0:271:2
-1:0
0:306:1
-1:1
3:126:1
0:-1
7:42:1
1:1
1:150:2
-1:0
1:273:1
-1:1
6:258:1
1:-1
0:39:1
-1:-1
3:54:1
0:-1
1:286:1
-1:1
0:341:1
-1:1
0:72:1
-1:1
0:39:1
-1:1
0:167:1
-1:1
0:326:1
-1:1
3:204:1
0:1
7:42:2
1:0
0:118:3
-1:0
0:305:2
-1:-1
0:322:1
-1:1
0:46:1
-1:1
1:57:1
-1:1
1:70:1
-1:-1
2:284:1
0:-1
6:308:1
1:-1
0:45:1
-1:-1
0:41:1
-1:-1
1:212:1
-1:1
0:301:1
-1:-1
6:148:1
1:-1
0:46:1
-1:1
0:159:1
-1:-1
0:304:1
-1:-1
0:219:1
-1:1
4:32:1
1:-1
0:85:1
-1:1
2:324:1
0:-1
1:287:1
-1:-1
0:43:1
-1:1
0:59:1
-1:1
2:286:1
0:-1
1:318:1
-1:-1
0:71:1
-1:-1
1:43:1
-1:1
1:154:1
-1:1
3:322:1
0:-1
5:225:1
1:1
0:32:2
-1:-1
1:88:1
-1:1
0:275:1
-1:-1
4:344:1
1:1
1:42:2
-1:0
7:36:1
1:1
2:232:2
0:0
1:364:2
-1:0
3:166:1
0:-1
6:40:1
1:-1
0:44:1
-1:-1
0:229:1
-1:1
3:279:1
0:-1
0:170:1
-1:-1
7:46:1
1:-1
0:137:1
-1:1
0:296:1
-1:1
0:237:1
-1:1
1:39:1
-1:1
0:55:1
-1:1
0:293:1
-1:1
5:350:1
1:1
3:45:2
0:-1
7:38:2
1:-1
2:267:2
0:0
1:283:2
-1:-1
3:125:1
0:-1
0:45:1
-1:1
0:126:1
-1:1
3:274:1
0:-1
0:256:1
-1:-1
7:46:1
1:1
0:53:2
-1:0
2:302:1
0:1
4:343:2
1:-1
2:50:2
0:0
7:40:2
1:0
1:252:3
-1:0
1:292:2
-1:0
3:147:1
0:1
1:47:2
-1:0
1:146:1
-1:-1
1:292:1
-1:-1
0:250:1
-1:-1
0:55:1
-1:-1
7:42:1
1:-1
0:26:1
-1:-1
0:219:1
-1:1
1:295:1
-1:-1
1:168:1
-1:-1
5:37:1
1:-1
1:90:1
-1:1
1:290:1
-1:1
6:308:1
1:-1
4:50:1
1:-1
7:38:1
1:1
0:194:2
-1:-1
0:249:1
-1:1
6:238:1
1:1
4:48:2
1:1
0:55:3
-1:0
0:266:2
-1:0
0:285:1
-1:-1
0:109:1
-1:1
6:51:1
1:-1
0:162:1
-1:-1
2:328:1
0:1
3:183:2
0:-1
0:46:2
-1:0
1:126:1
-1:-1
0:314:1
-1:-1
6:262:1
1:1
3:45:2
0:1
0:84:3
-1:0
0:278:2
-1:0
0:273:1
-1:-1
3:87:1
0:-1
6:44:1
1:-1
0:174:1
-1:-1
0:325:1
-1:1
0:194:1
-1:1
7:43:1
1:-1
1:115:1
-1:-1
2:294:1
0:-1
0:284:1
-1:1
3:55:1
0:1
0:98:2
-1:0
0:305:1
-1:-1
4:328:1
1:-1
4:51:1
1:-1
0:43:1
-1:1
0:29:1
-1:1
4:288:1
1:-1
0:351:1
-1:1
0:76:1
-1:-1
6:40:1
1:-1
0:198:1
-1:1
0:316:1
-1:1
2:176:1
0:-1
7:45:1
1:1
0:138:2
-1:0
0:308:1
-1:1
6:241:1
1:1
3:44:2
0:0
0:80:2
-1:0
0:309:1
-1:-1
5:327:1
1:1
2:55:2
0:0
0:43:2
-1:-1
0:264:1
-1:-1
1:290:1
-1:1
0:108:1
-1:1
0:47:1
-1:1
0:144:1
-1:1
1:341:1
-1:-1
2:238:1
0:1
2:44:2
0:0
0:52:2
-1:0
0:306:1
-1:1
0:350:1
-1:1
1:51:1
-1:-1
6:42:1
1:1
2:300:2
0:0
0:337:2
-1:-1
6:127:1
1:-1
7:40:1
1:-1
0:48:1
-1:-1
1:258:1
-1:1
2:256:1
0:-1
4:176:1
1:-1
7:46:1
1:1
0:138:2
-1:0
1:328:1
-1:1
1:220:1
-1:-1
3:39:1
0:1
1:89:2
-1:0
1:272:1
-1:1
1:317:1
-1:-1
0:54:1
-1:-1
0:39:1
-1:-1
1:265:1
-1:1
0:289:1
-1:-1
4:153:1
1:1
7:46:2
1:0
0:145:3
-1:0
0:316:2
-1:0
0:206:1
-1:1
1:46:1
-1:-1
1:82:1
-1:1
1:279:1
-1:-1
4:344:1
1:1
4:50:2
1:0
7:38:3
1:0
0:215:4
-1:0
2:353:3
0:0
3:146:3
0:0
7:46:3
1:0
0:176:4
-1:-1
0:361:3
-1:0
3:215:2
0:0
7:42:2
1:0
0:45:3
-1:0
1:263:2
-1:1
0:269:2
-1:-1
4:136:1
1:-1
7:46:1
1:1
0:133:2
-1:0
1:322:1
-1:1
1:219:1
-1:-1
0:34:1
-1:-1
0:84:1
-1:-1
1:296:1
-1:-1
6:310:1
1:-1
6:49:1
1:1
0:40:2
-1:-1
0:274:1
-1:1
1:293:1
-1:1
1:124:1
-1:-1
7:43:1
1:1
0:138:2
-1:0
0:314:1
-1:1
5:208:1
1:1
5:39:2
1:0
1:86:3
-1:0
2:295:2
0:-1
4:311:2
1:0
4:48:3
1:0
7:38:4
1:0
0:213:5
-1:-1
2:336:4
0:0
0:153:4
-1:-1
7:45:3
1:1
0:164:4
-1:0
0:362:3
-1:0
3:216:2
0:-1
7:43:2
1:0
0:44:3
-1:0
0:254:2
-1:0
0:253:1
-1:1
6:160:1
1:-1
5:49:1
1:1
0:132:2
-1:0
0:310:1
-1:1
3:230:1
0:1
0:30:2
-1:-1
1:87:1
-1:1
0:300:1
-1:1
7:273:1
1:1
6:46:2
1:0
4:42:3
1:-1
0:260:3
-1:0
1:283:2
-1:0
5:125:1
1:-1
0:45:1
-1:1
0:131:1
-1:-1
0:318:1
-1:1
7:220:1
1:1
7:35:2
1:0
0:87:3
-1:0
0:279:2
-1:-1
7:339:1
1:-1
6:47:1
1:1
4:43:2
1:-1
1:259:2
-1:1
1:316:2
-1:0
4:136:1
1:-1
7:44:1
1:1
1:139:2
-1:-1
0:355:1
-1:-1
7:224:1
1:1
7:37:2
1:0
0:57:3
-1:0
1:244:2
-1:0
0:285:1
-1:1
0:122:1
-1:1
0:43:1
-1:1
0:150:1
-1:-1
0:276:1
-1:-1
4:243:1
1:-1
0:35:1
-1:1
0:72:1
-1:-1
1:304:1
-1:-1
6:282:1
1:-1
5:46:1
1:1
0:44:2
-1:-1
1:245:1
-1:-1
0:299:1
-1:-1
0:125:1
-1:-1
2:47:1
0:1
0:129:2
-1:0
0:305:1
-1:1
6:215:1
1:1
0:40:2
-1:-1
1:98:1
-1:-1
1:126:1
-1:1
2:159:1
0:-1
4:179:1
1:-1
4:132:1
1:-1
6:39:1
1:-1
1:116:1
-1:-1
2:299:1
0:-1
0:288:1
-1:-1
0:50:1
-1:-1
0:47:1
-1:-1
1:278:1
-1:-1
0:315:1
-1:-1
0:81:1
-1:-1
5:50:1
1:1
0:57:2
-1:0
1:222:1
-1:1
1:258:1
-1:-1
3:182:1
0:1
4:38:2
1:-1
0:54:2
-1:0
0:277:1
-1:1
2:240:1
0:1
3:136:2
0:1
6:45:3
1:0
0:140:4
-1:-1
0:280:3
-1:0
7:241:2
1:-1
5:44:2
1:0
1:54:3
-1:0
0:292:2
-1:-1
0:324:1
-1:1
0:53:1
-1:-1
6:41:1
1:-1
1:196:1
-1:-1
1:291:1
-1:-1
0:188:1
-1:-1
3:40:1
0:-1
0:87:1
-1:1
0:300:1
-1:-1
4:314:1
1:1
1:50:2
-1:0
6:43:1
1:1
2:244:2
0:0
0:301:2
-1:-1
1:165:1
-1:1
7:46:1
1:1
0:113:2
-1:0
2:328:1
0:1
5:290:2
1:0
0:52:3
-1:0
3:44:2
0:-1
0:30:2
-1:1
2:242:2
0:-1
0:329:2
-1:-1
0:113:1
-1:-1
4:48:1
1:1
0:179:2
-1:-1
0:296:1
-1:1
4:238:1
1:1
2:43:2
0:-1
0:78:2
-1:0
0:324:1
-1:1
0:281:1
-1:1
3:57:1
0:-1
0:66:1
-1:1
0:298:1
-1:-1
1:323:1
-1:1
0:57:1
-1:1
6:41:1
1:-1
0:186:1
-1:1
0:289:1
-1:1
1:205:1
-1:1
3:38:1
0:-1
0:84:1
-1:1
2:336:1
0:-1
0:304:1
-1:-1
0:51:1
-1:1
3:53:1
0:1
2:298:2
0:-1
0:355:2
-1:-1
3:69:1
0:-1
4:45:1
1:-1
0:170:1
-1:-1
0:326:1
-1:-1
3:235:1
0:-1
3:42:1
0:1
0:54:2
-1:0
0:238:1
-1:1
0:256:1
-1:-1
0:198:1
-1:1
7:44:1
1:-1
1:103:1
-1:-1
0:299:1
-1:-1
3:303:1
0:-1
3:58:1
0:1
0:66:2
-1:0
0:301:1
-1:-1
0:279:1
-1:1
0:75:1
-1:-1
6:43:1
1:-1
0:214:1
-1:1
0:345:1
-1:1
4:146:1
1:1
7:45:2
1:0
0:153:3
-1:0
0:268:2
-1:-1
0:259:1
-1:-1
3:54:1
0:1
0:88:2
-1:0
2:330:1
0:1
1:305:2
-1:-1
4:53:1
1:-1
7:41:1
1:1
0:202:2
-1:-1
0:318:1
-1:-1
4:174:1
1:1
7:45:2
1:0
1:140:3
-1:0
0:363:2
-1:-1
5:251:1
1:1
2:43:2
0:0
0:53:2
-1:0
0:238:1
-1:1
0:234:1
-1:-1
3:204:1
0:-1
7:42:1
1:1
0:117:2
-1:0
1:338:1
-1:1
4:258:1
1:-1
0:47:1
-1:1
3:49:1
0:1
0:287:2
-1:-1
0:294:1
-1:1
0:84:1
-1:-1
7:48:1
1:1
1:165:2
-1:0
2:325:1
0:-1
3:192:1
0:1
7:39:2
1:-1
1:117:2
-1:0
1:254:1
-1:-1
4:342:1
1:1
5:53:2
1:0
7:37:3
1:-1
1:254:3
-1:0
2:290:2
0:-1
4:167:2
1:-1
7:45:2
1:0
0:130:3
-1:0
3:340:2
0:-1
0:243:2
-1:0
4:42:1
1:-1
0:53:1
-1:1
0:318:1
-1:1
1:368:1
-1:1
4:50:1
1:1
5:38:2
1:-1
0:29:2
-1:0
1:258:1
-1:1
1:255:1
-1:-1
3:181:1
0:-1
6:43:1
1:1
0:112:2
-1:0
0:316:1
-1:1
0:251:1
-1:1
0:49:1
-1:1
3:48:1
0:1
0:244:2
-1:-1
1:297:1
-1:1
2:106:1
0:-1
0:47:1
-1:1
0:171:1
-1:1
1:314:1
-1:1
3:203:1
0:-1
7:43:1
1:1
0:101:2
-1:0
1:251:1
-1:1
4:340:1
1:-1
4:52:1
1:-1
7:39:1
1:1
2:223:2
0:0
0:301:2
-1:1
3:180:2
0:-1
7:42:2
1:0
0:94:3
-1:0
0:305:2
-1:-1
0:284:1
-1:1
0:49:1
-1:1
0:55:1
-1:1
0:327:1
-1:1
4:370:1
1:-1
1:47:1
-1:-1
7:45:1
1:1
0:31:2
-1:0
0:250:1
-1:-1
0:303:1
-1:1
6:129:1
1:-1
7:46:1
1:1
1:127:2
-1:-1
4:296:1
1:-1
0:252:1
-1:-1
0:38:1
-1:-1
0:60:1
-1:1
1:302:1
-1:1
0:309:1
-1:-1
3:50:1
0:-1
7:40:1
1:-1
1:253:1
-1:1
2:306:1
0:-1
6:138:1
1:-1
7:46:1
1:1
0:124:2
-1:-1
0:308:1
-1:1
0:274:1
-1:1
0:44:1
-1:1
3:52:1
0:-1
1:292:1
-1:-1
0:308:1
-1:1
0:86:1
-1:-1
6:47:1
1:1
0:169:2
-1:-1
1:331:1
-1:1
4:206:1
1:-1
0:34:1
-1:-1
0:56:1
-1:1
0:315:1
-1:1
1:374:1
-1:1
1:47:1
-1:1
7:40:1
1:1
0:26:2
-1:0
0:269:1
-1:1
1:282:1
-1:-1
4:107:1
1:-1
0:44:1
-1:-1
0:125:1
-1:-1
0:279:1
-1:-1
0:261:1
-1:1
0:39:1
-1:1
0:56:1
-1:1
0:297:1
-1:1
1:335:1
-1:1
0:47:1
-1:1
7:38:1
1:-1
2:206:1
0:-1
0:281:1
-1:-1
4:180:1
1:-1
6:37:1
1:-1
0:105:1
-1:-1
2:250:1
0:1
4:305:2
1:-1
0:44:2
-1:-1
7:37:1
1:-1
1:166:1
-1:1
1:303:1
-1:-1
0:202:1
-1:-1
1:39:1
-1:1
0:107:1
-1:1
1:279:1
-1:-1
0:318:1
-1:-1
0:48:1
-1:-1
2:42:1
0:-1
0:261:1
-1:1
0:310:1
-1:-1
0:106:1
-1:1
0:54:1
-1:-1
7:44:1
1:-1
0:26:1
-1:-1
1:232:1
-1:1
1:296:1
-1:1
2:128:1
0:-1
0:46:1
-1:-1
0:124:1
-1:-1
1:290:1
-1:1
7:239:1
1:-1
3:43:1
0:-1
0:76:1
-1:1
0:266:1
-1:-1
1:332:1
-1:1
1:54:1
-1:1
7:43:1
1:1
0:266:2
-1:0
2:274:1
0:1
3:128:2
0:-1
0:47:2
-1:0
0:132:1
-1:1
1:287:1
-1:-1
0:251:1
-1:-1
0:52:1
-1:1
2:48:1
0:-1
0:237:1
-1:1
1:299:1
-1:1
0:129:1
-1:-1
4:48:1
1:1
1:156:2
-1:-1
0:274:1
-1:-1
7:267:1
1:1
3:45:2
0:0
0:52:2
-1:0
0:315:1
-1:1
0:365:1
-1:1
4:56:1
1:-1
6:38:1
1:-1
0:26:1
-1:1
0:236:1
-1:1
1:266:1
-1:-1
0:175:1
-1:-1
7:46:1
1:1
0:99:2
-1:0
0:301:1
-1:1
1:275:1
-1:1
0:54:1
-1:-1
2:41:1
0:1
1:240:2
-1:1
0:295:2
-1:-1
0:145:1
-1:1
0:51:1
-1:1
1:178:1
-1:1
0:301:1
-1:-1
0:206:1
-1:1
4:42:1
1:1
0:54:2
-1:0
0:270:1
-1:1
0:272:1
-1:1
0:120:1
-1:1
0:46:1
-1:1
1:137:1
-1:-1
0:324:1
-1:-1
3:238:1
0:1
3:43:2
0:1
0:98:3
-1:0
0:278:2
-1:0
0:330:1
-1:-1
0:58:1
-1:-1
7:40:1
1:-1
0:219:1
-1:1
1:357:1
-1:1
3:193:1
0:-1
7:40:1
1:-1
0:48:1
-1:-1
0:218:1
-1:1
0:257:1
-1:-1
2:216:1
0:-1
0:40:1
-1:-1
0:100:1
-1:1
0:283:1
-1:1
2:288:1
0:1
0:56:2
-1:1
1:42:2
-1:-1
2:254:1
0:1
0:280:2
-1:1
0:139:2
-1:-1
6:46:1
1:1
0:152:2
-1:0
1:333:1
-1:1
2:215:1
0:1
4:43:2
1:-1
3:95:2
0:1
0:252:3
-1:-1
0:313:2
-1:0
0:64:1
-1:-1
4:40:1
1:-1
1:209:1
-1:-1
1:301:1
-1:1
0:190:1
-1:1
0:39:1
-1:-1
0:92:1
-1:1
1:320:1
-1:1
0:310:1
-1:-1
1:60:1
-1:1
1:62:1
-1:1
1:334:1
-1:-1
2:345:1
0:-1
0:52:1
-1:1
6:40:1
1:-1
0:28:1
-1:1
0:242:1
-1:1
4:308:1
1:-1
0:139:1
-1:-1
7:43:1
1:-1
0:107:1
-1:-1
0:258:1
-1:1
1:299:1
-1:-1
2:54:1
0:-1
0:53:1
-1:1
0:300:1
-1:-1
0:325:1
-1:1
1:55:1
-1:-1
6:38:1
1:1
0:175:2
-1:1
1:301:2
-1:0
3:206:1
0:-1
7:45:1
1:1
0:97:2
-1:0
1:297:1
-1:1
1:280:1
-1:1
0:55:1
-1:-1
2:40:1
0:1
1:213:2
-1:1
0:346:2
-1:-1
0:145:1
-1:1
7:49:1
1:1
0:177:2
-1:0
0:316:1
-1:1
2:217:1
0:1
0:39:2
-1:0
4:55:1
1:-1
0:297:1
-1:1
0:370:1
-1:-1
0:55:1
-1:-1
7:39:1
1:-1
0:26:1
-1:1
0:238:1
-1:1
1:322:1
-1:-1
4:123:1
1:-1
7:45:1
1:1
0:146:2
-1:-1
0:265:1
-1:1
5:244:1
1:1
0:42:2
-1:0
0:55:1
-1:-1
2:292:1
0:-1
0:333:1
-1:-1
4:51:1
1:-1
7:35:1
1:1
0:224:2
-1:0
0:288:1
-1:1
3:175:1
0:-1
7:46:1
1:1
1:128:2
-1:0
0:256:1
-1:-1
6:276:1
1:-1
2:51:1
0:1
1:41:2
-1:-1
0:220:1
-1:1
2:325:1
0:-1
4:152:1
1:-1
7:44:1
1:1
0:141:2
-1:0
1:312:1
-1:-1
0:257:1
-1:-1
0:46:1
-1:-1
4:56:1
1:1
1:290:2
-1:1
0:370:2
-1:0
0:62:1
-1:-1
7:38:1
1:-1
0:26:1
-1:-1
1:224:1
-1:1
2:306:1
0:-1
6:130:1
1:-1
7:44:1
1:1
0:141:2
-1:0
0:267:1
-1:1
0:252:1
-1:-1
0:41:1
-1:1
0:64:1
-1:1
1:296:1
-1:-1
3:290:1
0:1
0:43:2
-1:-1
7:39:1
1:-1
1:167:1
-1:-1
1:327:1
-1:-1
3:172:1
0:-1
7:45:1
1:1
0:105:2
-1:0
0:254:1
-1:-1
4:313:1
1:1
4:45:2
1:0
7:39:3
1:0
1:226:4
-1:0
1:328:3
-1:-1
5:144:2
1:0
7:45:3
1:0
0:131:4
-1:-1
0:312:3
-1:-1
0:246:2
-1:0
6:46:1
1:1
0:68:2
-1:0
1:292:1
-1:-1
4:362:1
1:-1
0:49:1
-1:-1
7:41:1
1:-1
0:23:1
-1:1
0:229:1
-1:1
0:296:1
-1:-1
4:140:1
1:1
7:44:2
1:0
0:157:3
-1:-1
1:291:2
-1:-1
5:228:1
1:-1
7:33:1
1:1
0:62:2
-1:0
1:293:1
-1:-1
2:304:1
0:1
0:45:2
-1:0
7:38:1
1:-1
1:189:1
-1:1
0:299:1
-1:-1
0:168:1
-1:1
7:42:1
1:-1
1:111:1
-1:-1
0:245:1
-1:-1
3:298:1
0:1
1:46:2
-1:-1
7:38:1
1:1
2:211:2
0:0
1:333:2
-1:-1
3:171:1
0:-1
6:41:1
1:-1
0:117:1
-1:-1
0:303:1
-1:-1
0:266:1
-1:1
3:50:1
0:1
1:87:2
-1:0
1:142:1
-1:-1
2:160:1
0:-1
2:144:1
0:-1
0:171:1
-1:-1
5:36:1
1:1
0:53:2
-1:0
0:229:1
-1:1
0:284:1
-1:-1
3:140:1
0:1
6:44:2
1:0
1:152:3
-1:-1
1:256:2
-1:-1
7:228:1
1:-1
5:44:1
1:-1
1:54:1
-1:1
0:277:1
-1:-1
0:292:1
-1:1
0:50:1
-1:-1
7:39:1
1:-1
0:187:1
-1:1
0:300:1
-1:1
0:161:1
-1:1
6:47:1
1:1
0:95:2
-1:-1
1:226:1
-1:1
2:292:1
0:-1
0:86:1
-1:1
7:49:1
1:1
2:209:2
0:0
1:285:2
-1:1
0:193:2
-1:0
6:52:1
1:1
2:85:2
0:0
0:277:2
-1:0
0:243:1
-1:1
2:88:1
0:-1
4:40:1
1:-1
0:53:1
-1:1
0:239:1
-1:1
1:318:1
-1:1
2:130:1
0:-1
0:43:1
-1:1
0:154:1
-1:-1
0:305:1
-1:-1
6:279:1
1:1
3:45:2
0:1
0:62:3
-1:0
0:311:2
-1:0
1:294:1
-1:-1
3:87:1
0:1
6:46:2
1:-1
0:25:2
-1:0
0:233:1
-1:1
1:299:1
-1:1
3:145:1
0:-1
0:46:1
-1:1
0:124:1
-1:-1
1:311:1
-1:1
6:264:1
1:-1
2:48:1
0:-1
0:83:1
-1:1
1:303:1
-1:-1
4:298:1
1:-1
4:57:1
1:-1
7:42:1
1:-1
0:209:1
-1:-1
1:302:1
-1:1
4:165:1
1:1
6:47:2
1:0
1:127:3
-1:0
0:303:2
-1:0
0:235:1
-1:1
3:54:1
0:1
1:97:2
-1:0
0:302:1
-1:1
0:318:1
-1:1
3:53:1
0:1
6:38:2
1:-1
1:222:2
-1:0
0:331:1
-1:-1
4:168:1
1:1
7:47:2
1:0
0:143:3
-1:0
2:362:2
0:-1
0:218:2
-1:-1
2:42:1
0:-1
0:54:1
-1:1
0:237:1
-1:1
3:301:1
0:-1
4:144:1
1:-1
7:47:1
1:1
0:164:2
-1:0
0:270:1
-1:1
3:250:1
0:1
2:38:2
0:-1
1:79:2
-1:0
2:316:1
0:1
4:296:2
1:-1
4:50:2
1:0
6:39:3
1:0
1:217:4
-1:-1
0:298:3
-1:-1
4:174:2
1:-1
7:47:2
1:0
0:134:3
-1:0
0:316:2
-1:0
0:239:1
-1:1
4:55:1
1:1
0:44:2
-1:-1
0:275:1
-1:-1
0:347:1
-1:-1
2:93:1
0:-1
4:41:1
1:1
1:184:2
-1:-1
0:294:1
-1:-1
0:230:1
-1:-1
3:36:1
0:1
0:61:2
-1:-1
0:315:1
-1:1
0:328:1
-1:1
0:65:1
-1:-1
7:40:1
1:-1
0:25:1
-1:1
2:234:1
0:1
3:300:2
0:-1
4:144:2
1:-1
7:47:2
1:0
1:174:3
-1:0
0:262:2
-1:0
3:250:1
0:-1
0:40:1
-1:1
0:53:1
-1:-1
0:294:1
-1:1
0:298:1
-1:1
1:68:1
-1:-1
7:39:1
1:1
1:167:2
-1:0
2:353:1
0:-1
3:180:1
0:1
7:47:2
1:0
1:116:3
-1:0
1:246:2
-1:-1
4:313:1
1:-1
3:48:1
0:1
7:39:2
1:-1
1:279:2
-1:0
1:312:1
-1:-1
4:112:1
1:-1
7:41:1
1:1
0:130:2
-1:0
2:328:1
0:1
1:249:2
-1:0
0:38:1
-1:-1
0:56:1
-1:1
0:330:1
-1:1
0:353:1
-1:1
1:51:1
-1:-1
7:37:1
1:1
0:27:2
-1:0
0:233:1
-1:1
3:296:1
0:-1
5:137:1
1:-1
7:46:1
1:1
1:132:2
-1:-1
0:325:1
-1:-1
0:257:1
-1:-1
0:33:1
-1:-1
0:56:1
-1:1
0:288:1
-1:-1
0:295:1
-1:-1
0:56:1
-1:1
7:39:1
1:-1
1:175:1
-1:1
1:334:1
-1:-1
3:180:1
0:1
7:45:2
1:0
0:112:3
-1:0
0:241:2
-1:-1
4:318:1
1:-1
4:46:1
1:1
7:38:2
1:0
0:260:3
-1:0
0:297:2
-1:-1
6:126:1
1:1
7:46:2
1:0
1:130:3
-1:0
2:325:2
0:-1
5:235:2
1:0
0:37:3
-1:0
0:57:2
-1:0
0:335:1
-1:1
4:365:1
1:1
1:47:2
-1:-1
7:40:1
1:1
0:32:2
-1:0
1:245:1
-1:-1
0:282:1
-1:-1
4:132:1
1:-1
0:45:1
-1:1
1:146:1
-1:-1
1:283:1
-1:-1
5:252:1
1:-1
0:33:1
-1:1
0:60:1
-1:1
0:269:1
-1:1
1:309:1
-1:-1
0:62:1
-1:-1
2:41:1
0:1
0:161:2
-1:1
0:321:2
-1:0
0:193:1
-1:1
6:42:1
1:-1
1:116:1
-1:-1
0:222:1
-1:-1
0:332:1
-1:1
0:47:1
-1:-1
7:37:1
1:-1
0:184:1
-1:-1
0:298:1
-1:-1
0:191:1
-1:-1
7:42:1
1:1
0:95:2
-1:0
0:313:1
-1:-1
0:271:1
-1:1
0:46:1
-1:1
0:46:1
-1:-1
1:239:1
-1:-1
2:332:1
0:-1
0:141:1
-1:-1
5:46:1
1:1
0:33:2
-1:-1
2:239:1
0:1
0:308:2
-1:-1
0:105:1
-1:1
1:44:1
-1:1
0:132:1
-1:-1
2:284:1
0:-1
0:249:1
-1:-1
6:51:1
1:-1
0:48:1
-1:-1
1:225:1
-1:-1
0:287:1
-1:-1
0:112:1
-1:-1
0:48:1
-1:1
0:170:1
-1:1
0:327:1
-1:1
0:185:1
-1:1
0:41:1
-1:1
0:75:1
-1:-1
0:275:1
-1:1
0:304:1
-1:1
0:86:1
-1:-1
7:39:1
1:-1
0:168:1
-1:-1
1:291:1
-1:1
0:209:1
-1:-1
7:43:1
1:1
0:97:2
-1:0
2:297:1
0:1
6:290:2
1:-1
4:53:2
1:-1
6:38:2
1:0
0:223:3
-1:0
0:367:2
-1:0
3:157:1
0:1
6:46:2
1:0
0:39:3
-1:-1
1:249:2
-1:0
1:291:1
-1:-1
2:133:1
0:-1
7:42:1
1:-1
0:99:1
-1:1
2:313:1
0:1
0:259:2
-1:-1
0:53:1
-1:1
3:50:1
0:1
1:250:2
-1:-1
0:324:1
-1:-1
4:88:1
1:-1
0:46:1
-1:1
0:177:1
-1:1
0:330:1
-1:-1
1:201:1
-1:1
7:44:1
1:1
0:121:2
-1:0
0:283:1
-1:1
4:289:1
1:-1
0:55:1
-1:-1
7:39:1
1:-1
1:223:1
-1:-1
1:323:1
-1:-1
1:151:1
-1:-1
7:48:1
1:1
0:137:2
-1:0
1:306:1
-1:-1
6:264:1
1:-1
0:46:1
-1:-1
0:54:1
-1:-1
0:331:1
-1:1
4:375:1
1:-1
4:58:1
1:-1
6:39:1
1:1
0:26:2
-1:0
0:288:1
-1:1
0:291:1
-1:-1
4:108:1
1:-1
1:47:1
-1:1
0:172:1
-1:1
0:301:1
-1:1
1:203:1
-1:1
4:42:1
1:-1
0:76:1
-1:1
1:267:1
-1:-1
0:332:1
-1:-1
1:48:1
-1:1
6:42:1
1:1
1:268:2
-1:0
0:310:1
-1:-1
6:127:1
1:1
0:40:2
-1:-1
0:156:1
-1:1
1:281:1
-1:-1
7:263:1
1:1
0:50:2
-1:0
0:60:1
-1:1
0:317:1
-1:1
4:319:1
1:1
0:62:2
-1:0
6:39:1
1:-1
1:157:1
-1:1
0:331:1
-1:-1
0:197:1
-1:1
7:47:1
1:-1
0:122:1
-1:1
1:340:1
-1:1
0:282:1
-1:-1
2:57:1
0:1
0:54:2
-1:0
0:238:1
-1:1
0:257:1
-1:1
2:178:1
0:-1
7:46:1
1:1
0:129:2
-1:0
0:308:1
-1:1
2:231:1
0:1
3:38:2
0:0
0:53:2
-1:0
2:278:1
0:1
4:332:2
1:0
4:49:3
1:0
6:37:4
1:0
1:281:5
-1:-1
1:289:4
-1:-1
4:127:3
1:-1
7:46:3
1:0
1:126:4
-1:0
3:295:3
0:-1
0:258:3
-1:0
2:44:2
0:-1
0:54:2
-1:0
0:318:1
-1:1
4:346:1
1:-1
3:55:1
0:1
7:40:2
1:-1
0:259:2
-1:0
2:308:1
0:-1
4:146:1
1:1
7:47:2
1:0
2:161:3
0:0
1:341:3
-1:0
2:253:2
0:-1
3:41:2
0:-1
0:50:2
-1:1
1:236:2
-1:1
1:269:2
-1:0
3:169:1
0:-1
7:47:1
1:1
0:134:2
-1:0
0:290:1
-1:1
5:240:1
1:-1
0:44:1
-1:-1
0:61:1
-1:-1
0:282:1
-1:-1
6:337:1
1:1
0:51:2
-1:-1
7:35:1
1:1
0:248:2
-1:0
1:308:1
-1:1
4:123:1
1:-1
7:46:1
1:1
1:133:2
-1:0
1:304:1
-1:-1
0:240:1
-1:-1
0:43:1
-1:-1
0:56:1
-1:-1
2:308:1
0:1
4:346:2
1:-1
0:49:2
-1:0
7:37:1
1:-1
0:227:1
-1:-1
0:291:1
-1:1
4:173:1
1:1
7:46:2
1:0
0:136:3
-1:-1
0:320:2
-1:0
6:278:1
1:-1
0:43:1
-1:-1
3:50:1
0:1
1:52:2
-1:-1
0:255:1
-1:-1
0:267:1
-1:1
1:121:1
-1:-1
7:45:1
1:1
1:148:2
-1:0
1:280:1
-1:-1
0:222:1
-1:-1
0:32:1
-1:-1
0:55:1
-1:1
0:292:1
-1:1
4:315:1
1:1
0:49:2
-1:0
7:36:1
1:-1
1:214:1
-1:1
0:302:1
-1:1
4:168:1
1:-1
7:44:1
1:-1
0:94:1
-1:1
0:303:1
-1:-1
7:272:1
1:1
6:47:2
1:0
3:43:3
0:-1
0:228:3
-1:1
0:332:3
-1:0
0:132:2
-1:1
0:45:2
-1:1
1:160:2
-1:-1
1:314:1
-1:-1
0:194:1
-1:-1
5:44:1
1:-1
2:98:1
0:1
0:310:2
-1:-1
6:316:1
1:-1
6:45:1
1:1
0:48:2
-1:-1
1:47:1
-1:-1
1:250:1
-1:-1
0:254:1
-1:-1
0:123:1
-1:1
0:47:1
-1:1
2:165:1
0:1
0:313:2
-1:-1
0:187:1
-1:-1
4:38:1
1:-1
0:73:1
-1:1
0:305:1
-1:-1
6:318:1
1:-1
6:45:1
1:-1
0:39:1
-1:-1
0:229:1
-1:1
2:328:1
0:1
4:114:2
1:-1
0:47:2
-1:0
0:156:1
-1:-1
0:270:1
-1:1
7:236:1
1:1
0:36:2
-1:0
0:55:1
-1:1
0:298:1
-1:1
4:350:1
1:1
4:51:2
1:0
7:38:3
1:0
2:265:4
0:0
1:318:4
-1:0
0:105:3
-1:-1
5:47:2
1:1
2:97:3
0:0
0:145:3
-1:-1
2:136:2
0:0
1:129:2
-1:0
6:140:1
1:1
6:49:2
1:0
5:45:3
1:-1
0:28:3
-1:0
1:252:2
-1:-1
3:282:1
0:-1
1:87:1
-1:-1
6:42:1
1:1
1:162:2
-1:-1
0:292:1
-1:-1
3:186:1
0:1
6:42:2
1:0
0:107:3
-1:0
0:286:2
-1:0
1:260:1
-1:1
0:48:1
-1:-1
0:48:1
-1:-1
0:236:1
-1:-1
0:304:1
-1:-1
2:118:1
0:1
0:48:2
-1:1
1:163:2
-1:1
0:273:2
-1:-1
5:237:1
1:1
4:41:2
1:1
0:78:3
-1:0
1:282:2
-1:-1
0:356:1
-1:-1
1:50:1
-1:-1
7:41:1
1:1
0:222:2
-1:0
0:309:1
-1:1
3:148:1
0:1
0:47:2
-1:-1
0:127:1
-1:-1
0:340:1
-1:-1
0:235:1
-1:-1
3:38:1
0:-1
7:45:1
1:-1
0:44:1
-1:-1
3:188:1
0:1
0:289:2
-1:-1
0:200:1
-1:1
4:40:1
1:-1
1:87:1
-1:-1
2:316:1
0:-1
1:285:1
-1:-1
0:56:1
-1:1
0:40:1
-1:1
1:238:1
-1:1
0:284:1
-1:-1
3:129:1
0:-1
4:48:1
1:1
0:138:2
-1:0
1:333:1
-1:1
7:218:1
1:-1
1:50:1
-1:-1
0:98:1
-1:1
0:251:1
-1:-1
0:312:1
-1:1
0:76:1
-1:-1
3:44:1
0:1
0:191:2
-1:1
5:307:2
1:-1
0:240:2
-1:-1
5:48:1
1:1
0:64:2
-1:0
0:307:1
-1:1
4:306:1
1:1
0:53:2
-1:-1
3:43:1
0:-1
0:241:1
-1:1
1:326:1
-1:1
3:150:1
0:1
0:45:2
-1:0
0:37:1
-1:-1
2:226:1
0:1
1:308:2
-1:0
0:171:1
-1:-1
0:47:1
-1:1
1:134:1
-1:-1
1:278:1
-1:-1
0:267:1
-1:-1
2:53:1
0:1
0:53:2
-1:0
0:293:1
-1:1
4:307:1
1:1
0:55:2
-1:0
6:43:1
1:-1
0:219:1
-1:1
2:347:1
0:1
3:123:2
0:-1
6:49:2
1:0
0:175:3
-1:0
0:231:2
-1:0
0:267:1
-1:1
2:58:1
0:1
0:53:2
-1:0
1:320:1
-1:1
4:352:1
1:1
4:55:2
1:-1
6:38:2
1:0
2:211:3
0:0
0:304:3
-1:-1
3:156:2
0:-1
7:50:2
1:0
1:143:3
-1:0
1:316:2
-1:-1
0:272:1
-1:-1
3:50:1
0:-1
0:53:1
-1:1
1:245:1
-1:1
0:310:1
-1:-1
3:149:1
0:-1
6:47:1
1:1
2:133:2
0:-1
1:316:2
-1:-1
5:231:1
1:-1
3:44:1
0:-1
0:71:1
-1:1
0:286:1
-1:-1
1:309:1
-1:1
1:53:1
-1:1
6:39:1
1:1
2:214:2
0:-1
0:308:2
-1:1
3:172:2
0:-1
7:44:2
1:0
0:131:3
-1:0
2:251:2
0:0
0:286:2
-1:-1
2:57:1
0:1
0:64:2
-1:0
1:318:1
-1:-1
2:336:1
0:-1
0:53:1
-1:1
6:40:1
1:-1
0:179:1
-1:1
0:295:1
-1:-1
3:199:1
0:1
7:47:2
1:0
1:126:3
-1:0
0:296:2
-1:-1
0:297:1
-1:1
0:47:1
-1:-1
0:54:1
-1:-1
0:75:1
-1:1
0:229:1
-1:-1
0:303:1
-1:-1
0:101:1
-1:1
7:39:1
1:-1
0:185:1
-1:1
1:286:1
-1:-1
3:204:1
0:1
7:41:2
1:0
2:101:3
0:0
0:291:3
-1:0
0:271:2
-1:0
0:43:1
-1:-1
0:52:1
-1:-1
2:304:1
0:1
4:347:2
1:0
4:52:3
1:0
7:38:4
1:0
1:259:5
-1:-1
0:238:4
-1:-1
4:157:3
1:-1
7:44:3
1:-1
0:96:3
-1:0
2:343:2
0:-1
0:271:2
-1:1
0:43:2
-1:-1
0:57:1
-1:-1
2:299:1
0:1
1:319:2
-1:-1
1:50:1
-1:1
7:37:1
1:1
1:208:2
-1:0
0:328:1
-1:1
4:197:1
1:-1
7:46:1
1:1
0:41:2
-1:-1
0:244:1
-1:1
0:283:1
-1:1
4:166:1
1:-1
7:47:1
1:1
0:156:2
-1:0
0:333:1
-1:-1
4:203:1
1:-1
7:49:1
1:1
0:133:2
-1:0
0:286:1
-1:1
0:252:1
-1:-1
0:39:1
-1:-1
0:56:1
-1:1
0:297:1
-1:1
4:357:1
1:1
0:49:2
-1:0
7:36:1
1:-1
1:235:1
-1:1
0:254:1
-1:-1
5:159:1
1:-1
7:45:1
1:-1
0:114:1
-1:1
2:302:1
0:-1
4:276:1
1:1
0:41:2
-1:1
0:47:2
-1:-1
1:245:1
-1:-1
0:336:1
-1:-1
0:100:1
-1:-1
7:45:1
1:1
2:175:2
0:0
0:339:2
-1:0
3:211:1
0:1
6:43:2
1:0
0:45:3
-1:0
1:232:2
-1:1
1:276:2
-1:-1
0:179:1
-1:1
0:38:1
-1:1
0:62:1
-1:1
2:309:1
0:1
4:305:2
1:-1
0:46:2
-1:0
0:38:1
-1:-1
1:200:1
-1:-1
0:339:1
-1:1
4:142:1
1:1
6:46:2
1:0
2:181:3
0:0
0:273:3
-1:-1
7:257:2
1:0
0:39:3
-1:0
0:57:2
-1:0
2:290:1
0:-1
0:271:1
-1:1
0:86:1
-1:1
7:46:1
1:1
1:171:2
-1:0
2:350:1
0:-1
4:181:1
1:1
6:44:2
1:0
0:123:3
-1:0
0:284:2
-1:0
0:318:1
-1:-1
0:47:1
-1:-1
1:91:1
-1:-1
0:349:1
-1:1
2:306:1
0:-1
6:45:1
1:1
1:62:2
-1:0
1:53:1
-1:-1
1:283:1
-1:-1
0:293:1
-1:-1
4:49:1
1:-1
4:38:1
1:-1
0:153:1
-1:1
1:317:1
-1:-1
0:190:1
-1:-1
1:40:1
-1:1
0:87:1
-1:1
2:308:1
0:-1
0:284:1
-1:-1
5:51:1
1:-1
7:37:1
1:-1
1:251:1
-1:1
0:292:1
-1:-1
3:165:1
0:1
6:48:2
1:0
1:133:3
-1:-1
2:248:2
0:-1
0:233:2
-1:0
6:48:1
1:-1
1:87:1
-1:1
1:266:1
-1:-1
0:319:1
-1:-1
0:54:1
-1:-1
7:39:1
1:-1
0:208:1
-1:-1
1:290:1
-1:-1
0:180:1
-1:-1
6:42:1
1:1
0:113:2
-1:0
0:147:1
-1:-1
0:130:1
-1:1
1:114:1
-1:-1
4:129:1
1:1
2:85:2
0:-1
7:42:2
1:-1
0:42:2
-1:0
0:239:1
-1:1
1:260:1
-1:-1
0:163:1
-1:1
6:46:1
1:1
1:118:2
-1:0
0:282:1
-1:-1
0:269:1
-1:1
3:54:1
0:-1
0:43:1
-1:-1
1:262:1
-1:1
0:297:1
-1:-1
3:160:1
0:1
0:46:2
-1:-1
0:46:1
-1:-1
0:256:1
-1:1
0:297:1
-1:1
3:83:1
0:-1
4:44:1
1:-1
1:159:1
-1:-1
0:295:1
-1:-1
[...]
0:-1
4:160:1
1:1
7:45:2
1:0
0:149:3
-1:0
0:293:2
-1:0
0:232:1
-1:1
3:52:1
0:1
1:88:2
-1:0
0:276:1
-1:-1
4:330:1
1:-1
4:50:1
1:1
7:35:2
1:0
0:215:3
-1:0
1:354:2
-1:-1
4:148:1
1:1
7:44:2
1:0
0:175:3
-1:-1
2:347:2
0:0
1:228:2
-1:1
0:36:2
-1:0
5:53:1
1:-1
1:42:1
-1:1
0:257:1
-1:1
1:265:1
-1:1
0:123:1
-1:-1
7:44:1
1:1
0:135:2
-1:0
0:318:1
-1:1
2:224:1
0:1
0:38:2
-1:0
1:90:1
-1:-1
1:265:1
-1:-1
4:318:1
1:-1
4:51:1
1:1
7:37:2
1:0
1:256:3
-1:0
2:286:2
0:-1
4:160:2
1:0
7:50:3
1:0
0:145:4
-1:0
0:322:3
-1:0
0:213:2
-1:1
4:45:2
1:-1
0:84:2
-1:0
1:289:1
-1:1
0:323:1
-1:1
1:53:1
-1:-1
7:40:1
1:1
3:221:2
0:0
0:324:2
-1:1
3:186:2
0:0
6:43:2
1:0
1:105:3
-1:0
0:326:2
-1:-1
0:295:1
-1:1
5:48:1
1:1
0:57:2
-1:0
0:231:1
-1:1
1:256:1
-1:1
4:167:1
1:-1
6:44:1
1:1
0:114:2
-1:0
0:265:1
-1:1
0:300:1
-1:1
6:45:1
1:1
0:48:2
-1:-1
0:270:1
-1:-1
3:327:1
0:1
0:83:2
-1:1
5:46:2
1:1
1:199:3
-1:0
0:281:2
-1:-1
3:223:1
0:-1
6:44:1
1:1
1:104:2
-1:0
0:250:1
-1:-1
0:304:1
-1:1
4:50:1
1:-1
7:38:1
1:1
1:206:2
-1:0
1:330:1
-1:-1
4:157:1
1:-1
0:49:1
-1:1
1:149:1
-1:-1
0:309:1
-1:-1
6:276:1
1:1
0:39:2
-1:1
0:56:2
-1:0
0:331:1
-1:-1
0:331:1
-1:-1
2:49:1
0:-1
7:44:1
1:1
0:27:2
-1:0
1:237:1
-1:1
0:271:1
-1:-1
4:152:1
1:-1
0:45:1
-1:1
0:161:1
-1:-1
1:290:1
-1:1
6:239:1
1:1
0:34:2
-1:-1
0:83:1
-1:1
1:312:1
-1:-1
6:291:1
1:-1
6:47:1
1:1
0:49:2
-1:-1
1:255:1
-1:-1
1:282:1
-1:-1
4:117:1
1:-1
0:43:1
-1:1
0:124:1
-1:1
4:312:1
1:1
0:217:2
-1:0
0:45:1
-1:1
0:86:1
-1:-1
0:298:1
-1:-1
6:321:1
1:-1
4:47:1
1:-1
7:38:1
1:1
2:258:2
0:0
0:294:2
-1:-1
3:164:1
0:1
0:46:2
-1:0
0:137:1
-1:1
1:345:1
-1:1
0:188:1
-1:-1
4:55:1
1:-1
7:41:1
1:-1
0:25:1
-1:1
1:228:1
-1:1
1:264:1
-1:-1
1:156:1
-1:-1
6:41:1
1:-1
1:117:1
-1:-1
3:263:1
0:-1
0:306:1
-1:-1
0:54:1
-1:-1
1:85:1
-1:-1
0:309:1
-1:1
5:286:1
1:1
4:49:2
1:-1
7:41:2
1:-1
2:160:2
0:0
0:316:2
-1:0
0:179:1
-1:1
7:50:1
1:1
1:108:2
-1:0
0:228:1
-1:-1
0:321:1
-1:1
0:52:1
-1:-1
7:38:1
1:-1
1:216:1
-1:-1
0:301:1
-1:1
2:182:1
0:-1
7:42:1
1:-1
0:109:1
-1:-1
1:301:1
-1:1
4:292:1
1:-1
4:54:1
1:1
3:42:2
0:-1
0:220:2
-1:1
0:332:2
-1:0
1:151:1
-1:1
7:47:1
1:1
0:42:2
-1:0
1:218:1
-1:1
1:260:1
-1:-1
0:193:1
-1:1
7:46:1
1:1
0:123:2
-1:0
0:257:1
-1:1
1:300:1
-1:1
0:54:1
-1:-1
0:47:1
-1:1
0:266:1
-1:-1
0:278:1
-1:1
0:98:1
-1:1
6:49:1
1:-1
0:168:1
-1:-1
1:338:1
-1:1
1:184:1
-1:1
7:43:1
1:1
0:125:2
-1:0
0:218:1
-1:1
1:317:1
-1:1
1:55:1
-1:-1
6:42:1
1:1
0:275:2
-1:0
2:308:1
0:1
0:126:2
-1:-1
5:45:1
1:1
0:131:2
-1:0
3:308:1
0:1
5:259:2
1:-1
3:44:2
0:0
0:57:2
-1:0
0:321:1
-1:1
0:334:1
-1:1
0:60:1
-1:-1
6:41:1
1:-1
0:26:1
-1:1
0:218:1
-1:1
0:247:1
-1:-1
0:200:1
-1:-1
7:44:1
1:-1
1:111:1
-1:-1
0:290:1
-1:-1
0:308:1
-1:1
0:53:1
-1:1
2:47:1
0:-1
0:270:1
-1:1
2:284:1
0:1
0:104:2
-1:0
6:48:1
1:1
0:161:2
-1:0
2:339:1
0:1
2:188:2
0:0
7:45:2
1:0
0:118:3
-1:0
0:228:2
-1:-1
4:347:1
1:1
2:54:2
0:-1
6:41:2
1:0
3:268:3
0:0
0:271:3
-1:0
3:163:2
0:-1
7:44:2
1:-1
0:95:2
-1:0
2:322:1
0:1
0:271:2
-1:-1
0:55:1
-1:1
3:50:1
0:1
1:256:2
-1:-1
1:335:1
-1:-1
0:127:1
-1:-1
7:45:1
1:1
0:37:2
-1:-1
2:236:1
0:1
1:273:2
-1:-1
4:146:1
1:-1
7:46:1
1:1
0:149:2
-1:0
0:287:1
-1:1
1:263:1
-1:1
2:39:1
0:1
0:58:2
-1:0
0:292:1
-1:1
0:304:1
-1:1
0:66:1
-1:-1
6:42:1
1:-1
1:215:1
-1:1
0:335:1
-1:-1
4:145:1
1:1
7:47:2
1:0
1:166:3
-1:0
0:267:2
-1:0
0:251:1
-1:1
2:47:1
0:1
0:79:2
-1:0
2:332:1
0:-1
0:300:1
-1:-1
2:55:1
0:1
0:77:2
-1:0
0:296:1
-1:-1
3:333:1
0:1
1:54:2
-1:0
7:40:1
1:1
2:216:2
0:0
0:327:2
-1:1
3:196:2
0:1
6:42:3
1:0
0:43:4
-1:0
2:238:3
0:0
2:287:3
0:-1
4:131:3
1:-1
7:45:3
1:0
1:131:4
-1:-1
5:286:3
1:-1
6:244:3
1:-1
0:44:3
-1:0
3:48:2
0:0
0:245:2
-1:-1
0:262:1
-1:1
1:116:1
-1:1
7:43:1
1:1
0:150:2
-1:0
1:257:1
-1:1
0:284:1
-1:-1
0:40:1
-1:1
0:54:1
-1:-1
1:302:1
-1:-1
0:275:1
-1:-1
3:106:1
0:1
0:35:2
-1:-1
0:148:1
-1:1
0:322:1
-1:1
0:216:1
-1:1
5:40:1
1:1
0:83:2
-1:0
2:284:1
0:1
4:345:2
1:-1
5:51:2
1:0
7:39:3
1:-1
2:225:3
0:0
0:359:3
-1:-1
4:150:2
1:0
7:46:3
1:0
0:36:4
-1:-1
0:246:3
-1:0
2:285:2
0:-1
6:126:2
1:-1
7:46:2
1:0
1:97:3
-1:-1
0:308:2
-1:-1
3:250:1
0:-1
0:42:1
-1:1
2:51:1
0:-1
0:259:1
-1:1
0:283:1
-1:1
3:85:1
0:1
0:44:2
-1:1
0:182:2
-1:1
0:324:2
-1:-1
5:198:1
1:1
5:41:2
1:-1
1:115:2
-1:0
1:267:1
-1:-1
4:306:1
1:-1
6:50:1
1:1
0:41:2
-1:-1
3:244:1
0:1
0:335:2
-1:-1
6:116:1
1:1
0:45:2
-1:0
1:151:1
-1:-1
1:289:1
-1:-1
0:246:1
-1:1
0:38:1
-1:1
0:59:1
-1:1
0:318:1
-1:1
0:361:1
-1:1
1:48:1
-1:-1
7:39:1
1:1
0:24:2
-1:-1
0:243:1
-1:1
0:246:1
-1:-1
0:190:1
-1:1
7:46:1
1:-1
0:102:1
-1:-1
1:306:1
-1:1
4:256:1
1:1
6:41:2
1:1
0:54:3
-1:0
0:290:2
-1:0
4:335:1
1:1
1:44:2
-1:-1
7:39:1
1:1
0:262:2
-1:0
1:295:1
-1:1
3:126:1
0:-1
7:44:1
1:1
1:128:2
-1:-1
0:298:1
-1:-1
6:262:1
1:1
6:47:2
1:-1
6:45:2
1:-1
2:218:2
0:-1
0:332:2
-1:-1
4:115:1
1:-1
0:48:1
-1:1
1:136:1
-1:1
2:273:1
0:-1
0:279:1
-1:-1
5:42:1
1:-1
0:58:1
-1:1
1:182:1
-1:1
2:173:1
0:1
0:170:2
-1:-1
1:142:1
-1:1
6:41:1
1:1
0:45:2
-1:0
0:262:1
-1:1
1:279:1
-1:-1
3:110:1
0:-1
0:47:1
-1:1
0:128:1
-1:1
0:291:1
-1:1
4:229:1
1:1
3:42:2
0:0
0:65:2
-1:0
2:251:1
0:-1
0:305:1
-1:1
2:49:1
0:-1
7:39:1
1:1
0:264:2
-1:0
1:299:1
-1:1
4:119:1
1:-1
0:44:1
-1:-1
1:128:1
-1:1
0:279:1
-1:-1
0:255:1
-1:-1
5:50:1
1:-1
0:49:1
-1:-1
0:230:1
-1:-1
0:316:1
-1:1
0:126:1
-1:1
0:49:1
-1:1
2:163:1
0:1
1:315:2
-1:-1
3:227:1
0:-1
2:40:1
0:-1
0:54:1
-1:1
0:344:1
-1:1
5:321:1
1:1
7:62:2
1:0
3:42:3
0:0
0:55:3
-1:0
1:262:2
-1:0
0:289:1
-1:-1
3:127:1
0:1
1:47:2
-1:0
0:158:1
-1:-1
0:280:1
-1:1
0:238:1
-1:1
3:45:1
0:1
0:44:2
-1:0
0:258:1
-1:-1
0:297:1
-1:1
0:167:1
-1:1
7:46:1
1:-1
0:46:1
-1:-1
0:265:1
-1:1
0:295:1
-1:1
0:92:1
-1:1
6:49:1
1:1
0:173:2
-1:1
1:329:2
-1:0
2:168:1
0:1
7:43:2
1:0
1:117:3
-1:0
1:263:2
-1:-1
4:309:1
1:-1
0:50:1
-1:-1
3:43:1
0:-1
0:256:1
-1:1
0:288:1
-1:1
4:141:1
1:1
6:48:2
1:0
0:136:3
-1:0
1:317:2
-1:0
4:271:1
1:-1
0:43:1
-1:-1
6:53:1
1:-1
0:281:1
-1:-1
0:287:1
-1:1
0:128:1
-1:1
0:48:1
-1:1
2:168:1
0:1
3:333:2
0:-1
2:227:2
0:-1
2:36:2
0:-1
0:53:2
-1:0
0:52:1
-1:1
0:245:1
-1:-1
4:337:1
1:-1
0:57:1
-1:-1
6:40:1
1:-1
1:175:1
-1:1
0:292:1
-1:-1
0:205:1
-1:-1
7:47:1
1:-1
0:112:1
-1:-1
0:287:1
-1:-1
0:265:1
-1:1
1:53:1
-1:1
3:39:1
0:-1
0:247:1
-1:1
0:329:1
-1:1
0:137:1
-1:1
7:45:1
1:1
0:172:2
-1:0
0:264:1
-1:1
3:241:1
0:1
1:54:2
-1:1
0:59:2
-1:0
1:305:1
-1:1
0:338:1
-1:-1
0:57:1
-1:-1
6:42:1
1:-1
4:224:1
1:1
1:333:2
-1:0
3:157:1
0:-1
7:46:1
1:1
1:136:2
-1:0
0:288:1
-1:-1
0:310:1
-1:-1
0:50:1
-1:1
6:53:1
1:1
0:37:2
-1:-1
2:265:1
0:1
0:331:2
-1:-1
0:63:1
-1:-1
7:39:1
1:-1
2:183:1
0:1
0:312:2
-1:-1
2:195:1
0:1
7:47:2
1:0
0:134:3
-1:0
0:284:2
-1:0
0:258:1
-1:1
0:44:1
-1:-1
0:65:1
-1:-1
0:286:1
-1:-1
4:349:1
1:1
4:52:2
1:0
7:37:3
1:0
1:240:4
-1:0
0:257:3
-1:-1
3:182:2
0:0
7:42:2
1:0
1:101:3
-1:0
0:327:2
-1:-1
4:285:1
1:1
0:53:2
-1:1
0:56:2
-1:0
2:317:1
0:1
0:352:2
-1:-1
1:50:1
-1:-1
4:41:1
1:1
0:198:2
-1:1
0:328:2
-1:-1
5:212:1
1:-1
6:41:1
1:-1
0:54:1
-1:-1
0:256:1
-1:1
0:259:1
-1:-1
5:135:1
1:1
7:47:2
1:0
0:133:3
-1:0
3:340:2
0:-1
0:204:2
-1:-1
0:39:1
-1:-1
2:90:1
0:1
1:250:2
-1:0
4:332:1
1:-1
4:48:1
1:1
Heartbeat CPU 0 instructions: 10000001 cycles: 8130515 heartbeat IPC: 1.22993 cumulative IPC: 1.18698 (Simulation time: 0 hr 0 min 33 sec) 
7:38:2
1:0
1:233:3
-1:0
2:320:2
0:-1
4:148:2
1:0
7:46:3
1:0
2:131:4
0:-1
1:280:4
-1:-1
6:257:3
1:-1
0:46:3
-1:-1
0:41:2
-1:-1
0:223:1
-1:1
1:319:1
-1:-1
5:146:1
1:-1
7:48:1
1:1
0:161:2
-1:0
0:303:1
-1:1
4:254:1
1:1
0:34:2
-1:-1
1:90:1
-1:1
0:340:1
-1:1
6:316:1
1:1
4:45:2
1:-1
7:40:2
1:0
0:22:3
-1:-1
1:245:2
-1:1
1:271:2
-1:-1
5:168:1
1:1
7:41:2
1:-1
0:120:2
-1:0
0:278:1
-1:1
0:263:1
-1:1
0:43:1
-1:1
0:85:1
-1:1
0:282:1
-1:-1
7:306:1
1:-1
6:44:1
1:1
0:40:2
-1:-1
0:276:1
-1:1
1:311:1
-1:1
0:127:1
-1:-1
0:42:1
-1:1
2:138:1
0:1
0:322:2
-1:0
7:205:1
1:1
7:36:2
1:0
0:83:3
-1:0
0:270:2
-1:-1
0:331:1
-1:1
0:50:1
-1:-1
7:37:1
1:-1
1:209:1
-1:-1
0:299:1
-1:1
0:205:1
-1:1
6:44:1
1:-1
0:118:1
-1:-1
0:311:1
-1:-1
0:294:1
-1:1
6:45:1
1:1
0:56:2
-1:0
0:238:1
-1:1
0:254:1
-1:-1
0:150:1
-1:-1
0:1:1
-1:-1
2:2:1
0:-1
3:2:1
0:-1
7:4:1
1:1
1:3:2
-1:-1
5:3:1
1:-1
0:2:1
-1:-1
0:0:1
-1:-1
3:3:1
0:-1
4:5:1
1:-1
1:2:1
-1:1
2:1:1
0:-1
0:1:1
-1:-1
0:1:1
-1:-1
5:4:1
1:-1
0:0:1
-1:-1
0:2:1
-1:-1
1:4:1
-1:-1
0:5:1
-1:-1
7:61:1
1:-1
7:48:1
1:-1
0:182:1
-1:1
6:306:1
1:1
0:174:2
-1:-1
6:47:1
1:1
0:54:2
-1:0
0:299:1
-1:1
4:328:1
1:1
4:53:2
1:0
7:36:3
1:0
1:195:4
-1:0
0:290:3
-1:-1
2:175:2
0:-1
7:43:2
1:0
0:97:3
-1:0
0:283:2
-1:-1
6:278:1
1:1
4:52:2
1:-1
0:41:2
-1:0
0:207:1
-1:1
0:334:1
-1:-1
3:149:1
0:1
0:45:2
-1:0
0:165:1
-1:1
0:315:1
-1:-1
5:209:1
1:1
4:38:2
1:-1
0:68:2
-1:0
0:341:1
-1:1
0:326:1
-1:1
0:54:1
-1:-1
6:43:1
1:-1
0:22:1
-1:1
0:245:1
-1:1
0:319:1
-1:-1
2:124:1
0:1
7:43:2
1:-1
0:129:2
-1:0
0:284:1
-1:-1
7:277:1
1:-1
2:46:1
0:-1
0:53:1
-1:1
0:314:1
-1:1
4:326:1
1:-1
0:56:1
-1:1
6:37:1
1:-1
1:232:1
-1:1
1:302:1
-1:-1
1:155:1
-1:-1
7:48:1
1:1
1:141:2
-1:0
0:266:1
-1:-1
0:278:1
-1:1
0:57:1
-1:-1
6:36:1
1:-1
1:219:1
-1:1
2:347:1
0:1
3:161:2
0:-1
0:48:2
-1:0
0:164:1
-1:-1
0:336:1
-1:1
3:207:1
0:1
0:41:2
-1:-1
0:83:1
-1:1
2:308:1
0:1
0:328:2
-1:0
4:52:1
1:1
6:40:2
1:-1
0:22:2
-1:0
0:236:1
-1:1
2:325:1
0:1
4:136:2
1:-1
4:50:2
1:0
2:176:3
0:0
0:302:3
-1:0
2:211:2
0:0
1:38:2
-1:-1
0:97:1
-1:1
1:294:1
-1:-1
0:304:1
-1:1
4:53:1
1:1
5:41:2
1:-1
0:210:2
-1:0
1:298:1
-1:1
1:164:1
-1:1
6:48:1
1:1
0:130:2
-1:0
2:255:1
0:1
4:291:2
1:-1
1:55:2
-1:0
2:39:1
0:-1
1:266:1
-1:1
0:317:1
-1:1
3:141:1
0:-1
6:47:1
1:1
0:153:2
-1:0
0:340:1
-1:1
0:210:1
-1:-1
7:45:1
1:-1
0:101:1
-1:1
2:335:1
0:-1
1:294:1
-1:1
2:57:1
0:1
0:53:2
-1:0
1:196:1
-1:1
3:285:1
0:-1
0:177:1
-1:-1
7:43:1
1:-1
0:135:1
-1:-1
1:270:1
-1:1
4:255:1
1:-1
0:45:1
-1:1
4:49:1
1:-1
1:281:1
-1:-1
0:321:1
-1:-1
0:54:1
-1:-1
6:40:1
1:-1
0:193:1
-1:1
0:301:1
-1:-1
3:187:1
0:-1
7:43:1
1:1
0:133:2
-1:1
2:252:2
0:0
4:292:2
1:0
5:51:3
1:0
0:38:4
-1:-1
2:273:3
0:1
0:306:4
-1:-1
4:150:3
1:0
7:47:4
1:0
2:150:5
0:-1
0:335:5
-1:-1
2:205:4
0:-1
2:39:4
0:0
0:82:4
-1:0
0:285:3
-1:0
0:358:2
-1:-1
1:56:1
-1:-1
7:37:1
1:1
0:30:2
-1:0
0:199:1
-1:1
1:305:1
-1:-1
3:178:1
0:-1
6:43:1
1:1
0:128:2
-1:0
1:265:1
-1:-1
2:259:1
0:-1
3:48:1
0:1
0:55:2
-1:0
0:282:1
-1:1
0:308:1
-1:1
0:53:1
-1:-1
7:43:1
1:-1
4:220:1
1:1
1:336:2
-1:1
3:150:2
0:-1
7:42:2
1:0
0:120:3
-1:0
0:244:2
-1:-1
4:284:1
1:1
4:53:2
1:0
7:37:3
1:0
1:240:4
-1:0
1:307:3
-1:-1
4:169:2
1:-1
7:48:2
1:0
2:140:3
0:0
0:338:3
-1:0
3:224:2
0:0
7:45:2
1:0
1:123:3
-1:0
2:300:2
0:-1
0:305:2
-1:-1
0:52:1
-1:1
0:56:1
-1:1
1:238:1
-1:1
0:289:1
-1:-1
2:142:1
0:-1
5:42:1
1:-1
1:81:1
-1:-1
0:306:1
-1:1
0:281:1
-1:1
5:47:1
1:1
0:78:2
-1:0
0:280:1
-1:-1
4:304:1
1:1
4:45:2
1:0
7:38:3
1:0
1:220:4
-1:0
1:344:3
-1:0
4:130:2
1:-1
7:47:2
1:0
0:135:3
-1:-1
1:264:2
-1:-1
4:254:1
1:-1
0:42:1
-1:1
0:64:1
-1:1
0:315:1
-1:-1
3:336:1
0:-1
0:46:1
-1:-1
7:40:1
1:-1
0:175:1
-1:1
0:319:1
-1:1
3:198:1
0:1
7:43:2
1:0
1:110:3
-1:0
1:295:2
-1:-1
0:295:1
-1:-1
0:46:1
-1:1
0:57:1
-1:1
0:246:1
-1:1
0:277:1
-1:1
3:156:1
0:-1
6:42:1
1:1
0:92:2
-1:0
1:297:1
-1:-1
0:255:1
-1:1
7:42:1
1:1
0:82:2
-1:0
1:285:1
-1:-1
7:307:1
1:-1
6:43:1
1:1
3:42:2
0:-1
0:237:2
-1:1
0:318:2
-1:0
0:131:1
-1:1
0:43:1
-1:1
0:166:1
-1:-1
0:259:1
-1:1
7:231:1
1:1
0:38:2
-1:0
4:52:1
1:1
1:306:2
-1:1
0:342:2
-1:-1
0:49:1
-1:-1
7:40:1
1:-1
2:214:1
0:1
0:333:2
-1:1
0:146:2
-1:0
7:43:1
1:-1
0:121:1
-1:-1
0:140:1
-1:1
0:146:1
-1:1
0:152:1
-1:-1
0:136:1
-1:1
6:46:1
1:1
4:43:2
1:-1
0:13:2
-1:1
0:276:2
-1:0
3:283:1
0:1
6:116:2
1:-1
4:38:2
1:-1
0:140:2
-1:0
0:319:1
-1:-1
0:191:1
-1:-1
7:44:1
1:1
0:119:2
-1:0
0:257:1
-1:1
1:263:1
-1:1
6:44:1
1:1
5:43:2
1:-1
1:249:2
-1:0
0:317:1
-1:-1
3:123:1
0:1
4:44:2
1:1
0:149:3
-1:0
1:310:2
-1:-1
5:197:1
1:-1
4:41:1
1:1
0:69:2
-1:0
3:312:1
0:-1
2:321:1
0:1
0:50:2
-1:0
7:40:1
1:-1
1:199:1
-1:-1
2:324:1
0:-1
0:175:1
-1:1
6:48:1
1:1
1:110:2
-1:-1
1:301:1
-1:-1
2:260:1
0:-1
0:64:1
-1:-1
2:40:1
0:1
0:52:2
-1:1
1:248:2
-1:0
0:266:1
-1:-1
2:167:1
0:-1
7:43:1
1:1
0:116:2
-1:0
0:284:1
-1:1
0:260:1
-1:1
4:52:1
1:-1
0:88:1
-1:1
0:272:1
-1:-1
5:316:1
1:-1
4:52:1
1:-1
6:36:1
1:1
1:244:2
-1:0
1:315:1
-1:-1
3:155:1
0:1
6:48:2
1:0
0:148:3
-1:0
0:309:2
-1:0
7:211:1
1:1
3:47:2
0:0
0:74:2
-1:0
1:296:1
-1:-1
0:342:1
-1:-1
0:55:1
-1:-1
6:45:1
1:-1
1:214:1
-1:1
0:357:1
-1:-1
3:145:1
0:1
6:51:2
1:0
0:170:3
-1:0
1:351:2
-1:1
0:209:2
-1:-1
7:45:1
1:-1
0:51:1
-1:-1
2:238:1
0:1
0:264:2
-1:-1
3:175:1
0:1
0:43:2
-1:-1
2:125:1
0:-1
3:290:1
0:1
0:256:2
-1:-1
3:56:1
0:-1
1:87:1
-1:1
0:316:1
-1:-1
5:308:1
1:1
3:55:2
0:0
0:37:2
-1:-1
1:288:1
-1:1
0:299:1
-1:-1
0:135:1
-1:-1
6:45:1
1:1
0:140:2
-1:0
0:309:1
-1:1
0:212:1
-1:1
3:47:1
0:1
0:87:2
-1:0
1:279:1
-1:1
0:337:1
-1:1
1:58:1
-1:-1
7:38:1
1:1
1:213:2
-1:1
2:287:2
0:-1
0:202:2
-1:-1
7:44:1
1:-1
1:134:1
-1:-1
1:312:1
-1:-1
0:275:1
-1:1
3:56:1
0:1
0:56:2
-1:0
0:245:1
-1:1
0:258:1
-1:1
2:169:1
0:-1
7:43:1
1:1
0:111:2
-1:0
0:287:1
-1:1
0:279:1
-1:1
3:52:1
0:1
0:91:2
-1:0
0:307:1
-1:-1
1:287:1
-1:1
4:53:1
1:-1
5:41:1
1:-1
2:262:1
0:1
1:297:2
-1:0
4:137:1
1:-1
7:48:1
1:1
0:129:2
-1:0
0:321:1
-1:1
0:215:1
-1:1
2:53:1
0:1
0:86:2
-1:0
0:283:1
-1:-1
0:331:1
-1:1
4:53:1
1:-1
6:40:1
1:1
0:215:2
-1:0
1:327:1
-1:1
3:163:1
0:-1
7:47:1
1:1
2:158:2
0:0
0:364:2
-1:-1
3:218:1
0:-1
7:46:1
1:1
0:43:2
-1:-1
0:255:1
-1:1
1:247:1
-1:-1
4:178:1
1:1
7:47:2
1:0
0:163:3
-1:0
1:288:2
-1:0
2:231:1
0:-1
0:33:1
-1:-1
1:83:1
-1:-1
2:325:1
0:1
1:290:2
-1:-1
0:50:1
-1:1
0:58:1
-1:-1
1:308:1
-1:-1
2:326:1
0:-1
0:52:1
-1:1
7:37:1
1:-1
0:156:1
-1:-1
0:291:1
-1:1
3:215:1
0:1
0:37:2
-1:1
0:85:2
-1:-1
1:286:1
-1:1
5:323:1
1:1
4:48:2
1:-1
6:33:2
1:0
2:214:3
0:0
0:309:3
-1:0
1:178:2
-1:0
6:43:1
1:1
0:101:2
-1:0
0:325:1
-1:1
4:284:1
1:-1
4:55:1
1:1
0:48:2
-1:-1
0:19:1
-1:-1
0:245:1
-1:1
0:255:1
-1:1
1:186:1
-1:-1
6:43:1
1:1
0:105:2
-1:0
1:291:1
-1:-1
0:302:1
-1:-1
0:47:1
-1:1
1:82:1
-1:1
2:316:1
0:-1
5:289:1
1:1
4:45:2
1:-1
6:39:2
1:0
2:202:3
0:0
1:322:3
-1:-1
5:162:2
1:0
0:51:3
-1:0
0:127:2
-1:-1
1:306:1
-1:-1
0:230:1
-1:-1
0:46:1
-1:1
1:94:1
-1:1
0:271:1
-1:1
0:341:1
-1:1
1:48:1
-1:-1
6:37:1
1:1
1:206:2
-1:0
0:314:1
-1:1
5:174:1
1:-1
5:41:1
1:-1
1:108:1
-1:-1
1:310:1
-1:-1
0:294:1
-1:-1
0:47:1
-1:1
2:49:1
0:-1
0:34:1
-1:-1
1:238:1
-1:-1
0:312:1
-1:1
4:128:1
1:-1
0:47:1
-1:1
0:172:1
-1:-1
0:298:1
-1:1
2:230:1
0:-1
0:36:1
-1:-1
1:58:1
-1:1
1:336:1
-1:1
3:298:1
0:1
1:45:2
-1:0
6:40:1
1:1
0:201:2
-1:0
0:324:1
-1:-1
3:161:1
0:-1
0:45:1
-1:1
1:127:1
-1:1
0:296:1
-1:-1
0:249:1
-1:-1
5:42:1
1:1
0:48:2
-1:-1
0:284:1
-1:-1
1:333:1
-1:1
2:83:1
0:-1
6:41:1
1:1
0:191:2
-1:-1
0:291:1
-1:1
0:224:1
-1:1
0:35:1
-1:-1
0:57:1
-1:1
0:323:1
-1:1
0:324:1
-1:1
1:50:1
-1:-1
6:36:1
1:1
0:24:2
-1:0
1:229:1
-1:1
1:259:1
-1:1
0:190:1
-1:-1
6:47:1
1:1
0:114:2
-1:0
0:277:1
-1:-1
0:293:1
-1:1
0:52:1
-1:-1
0:55:1
-1:-1
1:298:1
-1:-1
0:288:1
-1:1
0:51:1
-1:-1
6:41:1
1:-1
0:199:1
-1:1
0:311:1
-1:1
2:170:1
0:1
6:39:2
1:-1
0:115:2
-1:1
0:233:2
-1:0
5:309:1
1:-1
4:48:1
1:-1
6:39:1
1:-1
1:264:1
-1:1
0:310:1
-1:-1
3:98:1
0:-1
3:43:1
0:1
1:123:2
-1:0
0:314:1
-1:-1
2:246:1
0:-1
4:40:1
1:1
0:53:2
-1:0
0:148:1
-1:1
0:156:1
-1:-1
2:113:1
0:1
0:110:2
-1:0
0:114:1
-1:-1
6:45:1
1:1
0:43:2
-1:0
0:240:1
-1:1
0:283:1
-1:-1
2:158:1
0:1
5:40:2
1:-1
0:115:2
-1:0
1:313:1
-1:1
0:260:1
-1:1
0:50:1
-1:1
3:52:1
0:1
1:284:2
-1:1
0:308:2
-1:0
0:67:1
-1:-1
3:46:1
0:-1
0:178:1
-1:1
1:328:1
-1:1
0:198:1
-1:-1
6:45:1
1:1
2:94:2
0:-1
0:256:2
-1:0
3:355:1
0:1
1:55:2
-1:-1
5:43:1
1:1
2:264:2
0:0
0:334:2
-1:0
0:106:1
-1:-1
0:50:1
-1:1
0:107:1
-1:1
0:285:1
-1:1
4:275:1
1:1
4:55:2
1:0
0:47:3
-1:0
0:19:2
-1:-1
1:279:1
-1:-1
0:358:1
-1:-1
0:59:1
-1:-1
5:41:1
1:1
0:210:2
-1:0
0:309:1
-1:1
2:180:1
0:1
0:47:2
-1:-1
0:114:1
-1:-1
1:332:1
-1:-1
4:267:1
1:1
4:53:2
1:0
0:48:3
-1:-1
0:24:2
-1:-1
0:270:1
-1:-1
1:293:1
-1:1
1:123:1
-1:-1
6:47:1
1:1
1:149:2
-1:0
0:287:1
-1:-1
4:269:1
1:1
0:44:2
-1:0
4:46:1
1:1
1:307:2
-1:-1
3:285:1
0:-1
1:107:1
-1:1
3:35:1
0:-1
0:161:1
-1:1
1:329:1
-1:1
2:215:1
0:-1
6:46:1
1:1
1:125:2
-1:0
0:267:1
-1:-1
3:274:1
0:1
0:52:2
-1:0
1:40:1
-1:1
0:210:1
-1:1
2:348:1
0:-1
0:150:1
-1:-1
6:44:1
1:1
0:174:2
-1:0
1:326:1
-1:-1
2:209:1
0:-1
0:37:1
-1:-1
0:79:1
-1:1
0:286:1
-1:1
4:337:1
1:1
0:58:2
-1:0
5:41:1
1:-1
0:26:1
-1:1
0:238:1
-1:1
1:326:1
-1:-1
2:142:1
0:-1
5:44:1
1:1
0:125:2
-1:0
0:268:1
-1:1
0:283:1
-1:1
0:54:1
-1:1
0:54:1
-1:-1
1:292:1
-1:1
2:330:1
0:-1
0:53:1
-1:1
6:41:1
1:-1
0:204:1
-1:1
1:317:1
-1:-1
3:178:1
0:-1
6:43:1
1:1
0:121:2
-1:1
0:266:2
-1:0
0:286:1
-1:1
0:49:1
-1:1
0:61:1
-1:-1
1:308:1
-1:-1
4:351:1
1:-1
0:60:1
-1:1
6:38:1
1:1
1:255:2
-1:0
0:318:1
-1:1
4:131:1
1:-1
6:45:1
1:1
1:142:2
-1:0
0:338:1
-1:1
1:250:1
-1:1
0:37:1
-1:1
0:56:1
-1:1
0:222:1
-1:1
0:303:1
-1:1
3:177:1
0:1
6:43:2
1:0
1:136:3
-1:0
0:285:2
-1:-1
6:274:1
1:-1
0:42:1
-1:-1
0:65:1
-1:1
0:305:1
-1:-1
4:309:1
1:1
4:50:2
1:0
6:38:3
1:0
0:209:4
-1:0
1:298:3
-1:-1
3:167:2
0:-1
6:43:2
1:0
0:119:3
-1:0
1:260:2
-1:0
6:282:1
1:-1
0:47:1
-1:-1
6:36:1
1:-1
1:259:1
-1:1
1:305:1
-1:-1
4:159:1
1:1
6:47:2
1:0
1:127:3
-1:-1
1:288:2
-1:-1
0:254:1
-1:-1
4:48:1
1:1
1:84:2
-1:0
0:326:1
-1:-1
6:332:1
1:-1
5:44:1
1:-1
6:38:1
1:-1
0:22:1
-1:1
0:238:1
-1:1
1:301:1
-1:-1
3:152:1
0:-1
6:43:1
1:1
1:142:2
-1:0
1:262:1
-1:-1
0:278:1
-1:-1
0:42:1
-1:1
0:50:1
-1:1
1:262:1
-1:1
1:290:1
-1:1
5:111:1
1:1
0:41:2
-1:0
0:159:1
-1:1
0:314:1
-1:1
0:222:1
-1:1
0:33:1
-1:-1
0:56:1
-1:-1
0:251:1
-1:1
3:315:1
0:1
0:95:2
-1:-1
6:45:1
1:1
1:182:2
-1:-1
1:316:1
-1:1
0:220:1
-1:-1
5:43:1
1:-1
0:121:1
-1:-1
1:306:1
-1:-1
0:275:1
-1:1
6:44:1
1:1
0:86:2
-1:0
2:305:1
0:-1
4:334:1
1:1
4:50:2
1:0
6:40:3
1:0
0:21:4
-1:0
1:244:3
-1:-1
0:296:2
-1:-1
2:158:1
0:-1
5:39:1
1:-1
0:107:1
-1:-1
0:304:1
-1:1
2:256:1
0:1
0:42:2
-1:1
2:51:2
0:-1
0:259:2
-1:1
0:325:2
-1:1
3:65:2
0:-1
1:36:2
-1:-1
0:166:1
-1:1
0:321:1
-1:1
0:211:1
-1:1
0:38:1
-1:-1
1:86:1
-1:-1
0:287:1
-1:-1
0:294:1
-1:-1
Finished CPU 0 instructions: 10000000 cycles: 8447624 cumulative IPC: 1.18376 (Simulation time: 0 hr 0 min 36 sec) 

CPU 0 Branch Prediction Accuracy: 99.5557% MPKI: 0.0307 Average ROB Occupancy at Mispredict: 44.8827

ChampSim completed all CPUs

Region of Interest Statistics

CPU 0 cumulative IPC: 1.18376 instructions: 10000000 cycles: 8447624
L1D TOTAL     ACCESS:    6370876  HIT:    5123218  MISS:    1247658
L1D LOAD      ACCESS:    3066037  HIT:    2381326  MISS:     684711
L1D RFO       ACCESS:     795671  HIT:     729502  MISS:      66169
L1D PREFETCH  ACCESS:    2509168  HIT:    2012390  MISS:     496778
L1D WRITEBACK ACCESS:          0  HIT:          0  MISS:          0
L1D PREFETCH  REQUESTED:    3450400  ISSUED:    2886150  USEFUL:      41156  USELESS:     500722
L1D AVERAGE MISS LATENCY: 30748.2 cycles
L1I TOTAL     ACCESS:    2275130  HIT:    2015028  MISS:     260102
L1I LOAD      ACCESS:    2275130  HIT:    2015028  MISS:     260102
L1I RFO       ACCESS:          0  HIT:          0  MISS:          0
L1I PREFETCH  ACCESS:          0  HIT:          0  MISS:          0
L1I WRITEBACK ACCESS:          0  HIT:          0  MISS:          0
L1I PREFETCH  REQUESTED:          0  ISSUED:          0  USEFUL:          0  USELESS:          0
L1I AVERAGE MISS LATENCY: 11.1854 cycles
L2C TOTAL     ACCESS:    2450578  HIT:    2398934  MISS:      51644
L2C LOAD      ACCESS:     936869  HIT:     935723  MISS:       1146
L2C RFO       ACCESS:      65858  HIT:      59950  MISS:       5908
L2C PREFETCH  ACCESS:    1371067  HIT:    1326477  MISS:      44590
L2C WRITEBACK ACCESS:      76784  HIT:      76784  MISS:          0
L2C PREFETCH  REQUESTED:    1494933  ISSUED:    1396353  USEFUL:      50795  USELESS:        647
L2C AVERAGE MISS LATENCY: 170.72 cycles
LLC TOTAL     ACCESS:      57453  HIT:      30860  MISS:      26593
LLC LOAD      ACCESS:       1079  HIT:        582  MISS:        497
LLC RFO       ACCESS:       5908  HIT:          0  MISS:       5908
LLC PREFETCH  ACCESS:      44657  HIT:      24469  MISS:      20188
LLC WRITEBACK ACCESS:       5809  HIT:       5809  MISS:          0
LLC PREFETCH  REQUESTED:          0  ISSUED:          0  USEFUL:         67  USELESS:       2150
LLC AVERAGE MISS LATENCY: 272.684 cycles
Major fault: 0 Minor fault: 687
CPU 0 L2C next line prefetcher final stats

DRAM Statistics
 CHANNEL 0
 RQ ROW_BUFFER_HIT:      16137  ROW_BUFFER_MISS:      10456
 DBUS_CONGESTED:       2776
 WQ ROW_BUFFER_HIT:         49  ROW_BUFFER_MISS:        260  FULL:          0

 AVG_CONGESTED_CYCLE: 5
