
*** ChampSim Multicore Out-of-Order Simulator ***

Warmup Instructions: 1000000
Simulation Instructions: 10000000
Number of CPUs: 1
LLC sets: 2048
LLC ways: 16
Off-chip DRAM Size: 4096 MB Channels: 1 Width: 64-bit Data Rate: 3200 MT/s

CPU 0 runs /home/light/7th-Sem/cs622/project/ChampSim/dpc3_traces/619.lbm_s-4268B.champsimtrace.xz
12:11:4
2:-1
0:8:4
-1:0
6:7:3
1:-1
2:14:3
0:-1
15:9:3
2:0
2:12:4
0:-1
0:14:4
-1:-1
0:17:3
-1:1
9:15:3
2:-1
14:8:3
2:1
15:15:5
2:1
14:8:7
2:-1
15:15:7
2:1
15:13:9
2:0
15:14:10
2:1
12:18:12
2:1
15:11:12
2:-1
9:20:12
2:1
5:18:12
1:1
15:17:12
2:0
6:6:12
1:-1
2:21:12
0:0
15:21:12
2:0
15:19:12
2:1
0:19:12
-1:0
15:9:11
2:-1
15:11:11
2:0
15:18:12
2:0
15:10:12
2:0
0:7:12
-1:-1
15:17:11
2:-1
15:9:11
2:0
3:9:12
0:0
14:10:12
2:-1
15:16:12
2:1
15:20:12
2:0
12:17:12
2:0
15:12:12
2:0
2:22:12
0:1
13:18:12
2:0
14:14:12
2:0
11:23:12
2:0
15:16:12
2:0
15:15:12
2:1
10:14:12
2:-1
15:16:12
2:1
15:18:12
2:0
15:14:12
2:0
15:16:12
2:1
13:11:12
2:-1
15:9:12
2:0
0:8:12
-1:0
0:22:11
-1:0
12:9:10
2:-1
0:13:10
-1:0
14:8:9
2:-1
8:19:9
2:1
14:20:11
2:0
15:15:12
2:0
15:18:12
2:1
0:17:12
-1:1
10:21:12
2:0
8:19:12
2:0
7:10:12
1:0
15:18:12
2:0
15:11:12
2:0
15:8:12
2:-1
8:24:12
2:1
15:17:12
2:0
13:23:12
2:0
15:13:12
2:0
15:14:12
2:0
15:17:12
2:0
15:15:12
2:0
15:17:12
2:1
15:10:12
2:-1
11:20:12
2:0
15:11:12
2:0
0:19:12
-1:1
15:13:12
2:0
15:14:12
2:0
15:13:12
2:0
15:26:12
2:0
15:18:12
2:1
11:12:12
2:-1
13:13:12
2:0
15:12:12
2:1
15:23:12
2:0
11:20:12
2:1
0:18:12
-1:0
15:23:11
2:1
15:12:12
2:-1
0:14:12
-1:0
2:10:11
0:-1
0:10:11
-1:-1
10:8:10
2:-1
7:18:10
1:1
15:19:11
2:0
2:14:12
0:0
13:15:12
2:1
10:18:12
2:1
14:20:12
2:1
15:13:12
2:1
15:20:12
2:0
9:16:12
2:0
7:24:12
1:0
0:16:12
-1:1
15:13:12
2:-1
11:21:12
2:1
15:21:12
2:1
15:20:12
2:0
10:12:12
2:0
15:15:12
2:0
8:19:12
2:0
9:14:12
2:0
15:13:12
2:1
7:16:12
1:0
15:15:12
2:0
15:27:12
2:1
15:19:12
2:1
0:17:12
-1:0
0:13:11
-1:-1
0:12:10
-1:-1
0:12:9
-1:0
15:18:8
2:0
11:20:9
2:0
15:15:10
2:1
15:15:12
2:1
15:12:12
2:0
4:8:12
1:0
15:23:12
2:0
12:10:12
2:0
13:14:12
2:1
15:15:12
2:0
15:25:12
2:0
15:24:12
2:1
10:13:12
2:0
15:20:12
2:1
15:11:12
2:0
13:23:12
2:0
4:15:12
1:0
9:5:12
2:-1
15:14:12
2:1
15:12:12
2:1
0:12:12
-1:0
15:21:11
2:0
11:21:12
2:1
12:16:12
2:0
15:23:12
2:1
15:14:12
2:0
0:15:12
-1:1
15:11:12
2:0
8:19:12
2:0
14:22:12
2:0
0:8:12
-1:0
0:7:11
-1:-1
10:8:10
2:-1
15:12:10
2:1
15:13:12
2:1
15:13:12
2:1
15:8:12
2:-1
15:25:12
2:0
1:18:12
-1:0
15:15:11
2:0
15:16:12
2:0
13:13:12
2:0
8:15:12
2:1
15:13:12
2:0
14:26:12
2:0
15:12:12
2:0
10:18:12
2:1
11:14:12
2:0
15:14:12
2:1
11:18:12
2:1
15:19:12
2:0
12:18:12
2:1
15:23:12
2:0
15:19:12
2:0
6:15:12
1:0
15:12:12
2:0
0:17:12
-1:0
15:10:11
2:-1
15:20:11
2:0
0:12:12
-1:0
15:13:11
2:-1
1:12:11
-1:0
12:16:10
2:1
15:14:12
2:1
10:19:12
2:1
15:12:12
2:0
11:21:12
2:0
15:11:12
2:0
9:20:12
2:1
13:16:12
2:0
0:18:12
-1:0
14:13:11
2:1
0:20:12
-1:1
10:17:12
2:1
8:18:12
2:0
15:23:12
2:0
5:15:12
1:0
15:19:12
2:1
10:14:12
2:1
15:13:12
2:1
15:12:12
2:0
15:24:12
2:-1
9:5:12
2:-1
15:17:12
2:0
15:24:12
2:1
3:16:12
0:0
15:20:12
2:0
4:12:12
1:1
14:19:12
2:0
15:19:12
2:0
15:21:12
2:1
15:10:12
2:0
3:18:12
0:1
11:20:12
2:1
10:21:12
2:0
10:18:12
2:0
0:15:12
-1:0
15:17:11
2:0
14:20:12
2:0
11:27:12
2:1
15:15:12
2:0
15:14:12
2:1
15:20:12
2:0
15:18:12
2:0
15:12:12
2:1
4:14:12
1:1
15:17:12
2:1
15:14:12
2:0
13:10:12
2:-1
15:22:12
2:0
12:19:12
2:0
5:14:12
1:1
15:13:12
2:1
15:27:12
2:0
15:14:12
2:0
15:9:12
2:0
10:15:12
2:1
12:25:12
2:0
12:14:12
2:0
15:16:12
2:0
14:15:12
2:1
11:22:12
2:0
15:22:12
2:0
8:21:12
2:0
12:16:12
2:0
15:14:12
2:1
2:8:12
0:0
15:28:12
2:1
15:24:12
2:1
12:20:12
2:0
11:18:12
2:1
7:14:12
1:0
15:15:12
2:1
14:15:12
2:0
15:21:12
2:0
15:14:12
2:0
15:12:12
2:0
2:17:12
0:-1
14:10:12
2:-1
10:8:12
2:0
15:13:12
2:1
9:21:12
2:1
14:17:12
2:0
12:23:12
2:1
15:16:12
2:0
10:9:12
2:-1
15:10:12
2:0
2:19:12
0:1
15:21:12
2:1
15:20:12
2:0
15:15:12
2:0
15:11:12
2:-1
8:27:12
2:0
15:18:12
2:1
12:15:12
2:0
10:15:12
2:-1
15:13:12
2:1
13:15:12
2:1
9:19:12
2:0
15:19:12
2:0
15:12:12
2:0
9:22:12
2:0
9:10:12
2:-1
15:16:12
2:0
15:15:12
2:1
0:5:12
-1:-1
15:10:11
2:-1
15:8:11
2:-1
3:17:11
0:0
15:9:11
2:-1
10:15:11
2:0
15:10:12
2:0
11:16:12
2:1
9:18:12
2:0
15:12:12
2:0
15:15:12
2:0
2:9:12
0:0
15:19:12
2:0
0:20:12
-1:0
14:15:11
2:0
1:12:12
-1:1
14:11:12
2:0
15:11:12
2:0
12:16:12
2:1
13:11:12
2:0
15:5:12
2:-1
15:20:12
2:0
15:11:12
2:0
11:19:12
2:0
15:10:12
2:-1
4:15:12
1:1
11:20:12
2:1
11:18:12
2:1
15:13:12
2:1
2:11:12
0:1
15:12:12
2:1
15:19:12
2:0
15:15:12
2:1
12:20:12
2:0
15:17:12
2:0
9:21:12
2:1
13:10:12
2:-1
15:12:12
2:0
15:14:12
2:1
15:11:12
2:0
15:13:12
2:-1
15:19:12
2:0
12:14:12
2:0
10:20:12
2:1
15:20:12
2:0
14:14:12
2:1
10:18:12
2:1
11:6:12
2:-1
15:15:12
2:1
15:12:12
2:0
15:8:12
2:-1
0:13:12
-1:0
15:15:11
2:-1
0:9:11
-1:0
15:15:10
2:-1
0:8:10
-1:0
13:12:9
2:-1
13:12:9
2:-1
11:17:9
2:1
7:16:11
1:1
0:24:12
-1:0
15:12:11
2:0
11:16:12
2:0
13:16:12
2:0
9:18:12
2:-1
15:16:12
2:0
9:15:12
2:0
15:20:12
2:1
13:19:12
2:0
15:13:12
2:1
11:15:12
2:0
0:14:12
-1:0
15:15:11
2:-1
11:15:11
2:-1
15:11:11
2:1
10:24:12
2:0
15:10:12
2:0
15:19:12
2:0
8:21:12
2:0
6:6:12
1:0
15:12:12
2:0
0:18:12
-1:1
14:13:12
2:1
15:17:12
2:0
7:11:12
1:0
15:20:12
2:0

Warmup complete CPU 0 instructions: 1000002 cycles: 398660 (Simulation time: 0 hr 0 min 3 sec) 

0:12:12
-1:0
11:4:11
2:-1
15:2:11
2:-1
15:8:11
2:0
14:4:12
2:0
15:4:12
2:0
14:4:12
2:0
6:2:12
1:-1
11:3:12
2:-1
14:10:12
2:0
15:6:12
2:0
14:9:12
2:0
13:7:12
2:0
14:11:12
2:1
10:0:12
2:-1
14:4:12
2:0
15:5:12
2:0
15:6:12
2:0
15:7:12
2:0
15:7:12
2:0
15:5:12
2:0
15:13:12
2:1
2:2:12
0:-1
6:2:12
1:-1
12:7:12
2:0
14:5:12
2:0
14:3:12
2:-1
15:13:12
2:1
15:0:12
2:-1
15:4:12
2:0
15:8:12
2:0
0:3:12
-1:-1
7:1:11
1:-1
11:5:11
2:0
15:6:12
2:0
14:5:12
2:0
15:7:12
2:0
15:6:12
2:0
13:9:12
2:0
13:8:12
2:0
0:2:12
-1:-1
6:3:11
1:0
13:7:12
2:0
0:6:12
-1:0
13:6:11
2:-1
15:3:11
2:0
14:3:12
2:0
15:7:12
2:0
15:3:12
2:-1
0:7:12
-1:0
2:1:11
0:-1
11:9:11
2:0
15:8:12
2:0
15:2:12
2:-1
14:3:12
2:0
15:9:12
2:0
15:4:12
2:0
14:10:12
2:0
2:0:12
0:-1
8:1:12
2:-1
12:4:12
2:0
15:6:12
2:0
15:6:12
2:0
15:7:12
2:0
14:5:12
2:0
15:6:12
2:0
15:6:12
2:0
3:3:12
0:-1
12:3:12
2:0
14:6:12
2:0
14:7:12
2:0
15:6:12
2:0
15:3:12
2:-1
15:4:12
2:0
15:4:12
2:0
2:7:12
0:0
6:3:12
1:0
14:10:12
2:0
15:5:12
2:0
0:6:12
-1:0
14:9:11
2:-1
14:4:11
2:0
15:6:12
2:0
3:1:12
0:-1
4:1:12
1:-1
14:10:12
2:0
15:4:12
2:0
15:11:12
2:0
14:2:12
2:-1
15:9:12
2:0
15:5:12
2:0
15:7:12
2:0
7:1:12
1:-1
14:5:12
2:0
15:10:12
2:0
15:3:12
2:-1
15:10:12
2:0
15:4:12
2:-1
14:7:12
2:0
3:4:12
0:0
6:2:12
1:-1
15:10:12
2:0
15:2:12
2:-1
15:8:12
2:0
15:3:12
2:0
15:4:12
2:0
15:8:12
2:0
15:3:12
2:0
3:2:12
0:-1
6:1:12
1:-1
11:14:12
2:0
11:9:12
2:0
13:3:12
2:0
15:5:12
2:0
15:6:12
2:0
15:7:12
2:0
15:7:12
2:0
2:3:12
0:-1
12:5:12
2:0
15:2:12
2:-1
14:5:12
2:0
15:6:12
2:0
15:6:12
2:0
14:8:12
2:0
1:6:12
-1:0
10:0:11
2:-1
15:4:11
2:0
15:7:12
2:0
13:5:12
2:0
14:9:12
2:0
15:5:12
2:0
0:0:12
-1:-1
1:1:11
-1:-1
6:6:10
1:0
13:7:11
2:0
15:7:12
2:0
15:1:12
2:-1
15:1:12
2:-1
15:8:12
2:0
13:8:12
2:0
15:4:12
2:0
0:7:12
-1:0
5:4:11
1:0
12:7:12
2:0
15:9:12
2:0
15:4:12
2:0
14:9:12
2:0
15:5:12
2:0
15:3:12
2:0
2:6:12
0:0
4:3:12
1:-1
15:12:12
2:1
15:4:12
2:0
14:3:12
2:-1
15:9:12
2:0
15:1:12
2:-1
15:12:12
2:1
4:0:12
1:-1
11:1:12
2:-1
14:8:12
2:0
15:7:12
2:0
15:4:12
2:0
15:3:12
2:0
15:5:12
2:0
0:8:12
-1:0
5:4:11
1:0
14:9:12
2:0
15:5:12
2:0
14:7:12
2:0
15:7:12
2:0
15:2:12
2:-1
14:7:12
2:0
15:6:12
2:0
0:2:12
-1:-1
5:4:11
1:0
13:8:12
2:0
14:6:12
2:0
14:4:12
2:0
14:8:12
2:0
14:8:12
2:0
15:7:12
2:0
14:3:12
2:0
8:1:12
2:-1
15:6:12
2:0
14:1:12
2:-1
15:8:12
2:0
14:5:12
2:0
15:8:12
2:0
14:0:12
2:-1
3:9:12
0:0
5:1:12
1:-1
14:9:12
2:0
15:4:12
2:0
14:9:12
2:0
13:4:12
2:0
15:11:12
2:0
14:2:12
2:-1
15:5:12
2:0
7:1:12
1:-1
9:0:12
2:-1
15:8:12
2:0
15:6:12
2:0
13:9:12
2:0
15:3:12
2:0
15:6:12
2:0
15:8:12
2:0
0:6:12
-1:0
5:3:11
1:0
15:12:12
2:1
14:2:12
2:-1
15:6:12
2:0
15:4:12
2:0
15:7:12
2:0
15:5:12
2:0
6:4:12
1:0
10:1:12
2:-1
15:9:12
2:0
15:7:12
2:0
15:7:12
2:0
15:8:12
2:0
15:4:12
2:0
15:7:12
2:0
9:1:12
2:-1
12:2:12
2:-1
15:4:12
2:0
14:9:12
2:0
15:4:12
2:0
0:4:12
-1:-1
13:10:11
2:-1
13:4:11
2:0
2:5:12
0:0
6:3:12
1:0
15:9:12
2:0
15:0:12
2:-1
15:9:12
2:0
15:4:12
2:0
15:11:12
2:0
15:1:12
2:-1
15:6:12
2:0
5:4:12
1:-1
9:2:12
2:-1
15:8:12
2:0
0:3:12
-1:-1
13:9:11
2:-1
15:8:11
2:0
15:1:12
2:-1
0:9:12
-1:0
7:4:11
1:0
11:3:12
2:0
14:8:12
2:0
14:3:12
2:0
15:8:12
2:0
15:1:12
2:-1
14:4:12
2:-1
15:9:12
2:0
2:1:12
0:-1
10:7:12
2:0
15:9:12
2:0
15:4:12
2:0
15:2:12
2:-1
14:11:12
2:0
15:6:12
2:0
2:4:12
0:0
7:3:12
1:0
13:6:12
2:0
15:6:12
2:0
15:8:12
2:0
15:4:12
2:0
15:6:12
2:0
15:6:12
2:0
13:9:12
2:0
6:1:12
1:-1
12:1:12
2:-1
15:5:12
2:0
15:9:12
2:0
15:4:12
2:0
14:10:12
2:0
15:5:12
2:0
14:3:12
2:-1
6:4:12
1:0
12:1:12
2:-1
15:5:12
2:0
14:12:12
2:1
14:1:12
2:-1
15:8:12
2:0
15:5:12
2:0
8:5:12
2:-1
10:1:12
2:-1
14:9:12
2:0
15:3:12
2:0
15:7:12
2:0
0:4:12
-1:-1
14:8:11
2:-1
14:2:11
2:-1
1:9:11
-1:0
9:2:10
2:-1
15:7:10
2:0
14:8:11
2:0
14:1:12
2:-1
15:6:12
2:0
15:4:12
2:0
15:7:12
2:0
15:4:12
2:-1
5:1:12
1:-1
10:4:12
2:0
15:9:12
2:0
15:3:12
2:0
15:9:12
2:0
15:1:12
2:-1
15:10:12
2:0
15:2:12
2:-1
3:3:12
0:-1
10:4:12
2:0
15:9:12
2:0
15:2:12
2:-1
15:9:12
2:0
15:3:12
2:-1
15:5:12
2:0
0:7:12
-1:0
2:2:11
0:-1
12:1:11
2:-1
13:1:11
2:-1
15:5:11
2:0
13:8:12
2:0
15:2:12
2:-1
15:8:12
2:0
15:5:12
2:0
3:5:12
0:0
10:6:12
2:0
15:6:12
2:0
15:10:12
2:0
15:4:12
2:0
15:6:12
2:0
14:8:12
2:0
15:7:12
2:0
4:4:12
1:-1
9:4:12
2:0
15:9:12
2:0
15:5:12
2:0
14:8:12
2:0
15:6:12
2:0
14:3:12
2:0
15:5:12
2:0
5:2:12
1:-1
7:1:12
1:-1
15:12:12
2:1
15:4:12
2:0
15:8:12
2:0
15:5:12
2:0
1:12:12
-1:1
8:2:12
2:-1
15:5:12
2:0
15:9:12
2:0
15:5:12
2:0
15:8:12
2:0
14:9:12
2:0
0:2:12
-1:-1
7:5:11
1:0
11:4:12
2:0
15:5:12
2:0
15:9:12
2:0
12:8:12
2:0
13:3:12
2:0
15:6:12
2:0
15:10:12
2:0
15:2:12
2:-1
4:1:12
1:-1
14:10:12
2:0
15:4:12
2:0
14:7:12
2:0
14:5:12
2:0
15:7:12
2:0
15:3:12
2:-1
15:10:12
2:0
4:1:12
1:-1
9:2:12
2:-1
14:7:12
2:0
14:4:12
2:0
14:9:12
2:0
15:3:12
2:0
15:6:12
2:0
15:6:12
2:0
1:6:12
-1:0
7:1:11
1:-1
12:2:11
2:-1
14:9:11
2:0
15:2:12
2:-1
14:11:12
2:0
15:2:12
2:-1
15:5:12
2:0
15:8:12
2:0
6:2:12
1:-1
8:1:12
2:-1
15:10:12
2:0
15:6:12
2:0
15:9:12
2:0
15:3:12
2:0
15:3:12
2:-1
14:8:12
2:0
4:3:12
1:0
7:2:12
1:-1
11:4:12
2:0
15:7:12
2:0
14:7:12
2:0
14:4:12
2:0
14:4:12
2:0
15:6:12
2:0
15:3:12
2:0
6:3:12
1:-1
12:3:12
2:-1
14:6:12
2:0
15:4:12
2:0
15:9:12
2:0
15:11:12
2:0
15:8:12
2:0
1:4:12
-1:0
5:4:11
1:-1
12:8:11
2:0
12:3:12
2:0
14:12:12
2:1
15:6:12
2:0
15:8:12
2:0
15:6:12
2:0
10:3:12
2:-1
14:1:12
2:-1
15:4:12
2:0
15:1:12
2:-1
14:10:12
2:0
14:4:12
2:0
15:7:12
2:0
0:8:12
-1:0
6:1:11
1:-1
13:6:11
2:0
15:6:12
2:0
15:3:12
2:0
15:5:12
2:0
14:1:12
2:-1
14:8:12
2:0
14:4:12
2:0
2:4:12
0:0
12:6:12
2:0
14:3:12
2:0
15:3:12
2:0
13:8:12
2:0
13:9:12
2:0
15:3:12
2:0
15:6:12
2:0
8:0:12
2:-1
12:1:12
2:-1
14:4:12
2:0
15:9:12
2:0
15:2:12
2:-1
15:6:12
2:0
15:6:12
2:0
14:7:12
2:0
0:5:12
-1:0
1:1:11
-1:-1
7:2:10
1:-1
14:7:10
2:0
15:3:11
2:0
14:8:12
2:0
13:6:12
2:0
15:3:12
2:0
14:4:12
2:0
15:6:12
2:0
0:5:12
-1:0
2:0:11
0:-1
12:10:11
2:-1
15:2:11
2:-1
15:4:11
2:0
14:5:12
2:0
15:8:12
2:0
14:2:12
2:-1
1:8:12
-1:0
7:2:11
1:-1
12:5:11
2:0
15:10:12
2:0
14:2:12
2:-1
15:5:12
2:0
15:9:12
2:0
15:2:12
2:-1
14:6:12
2:0
0:6:12
-1:0
5:3:11
1:0
13:8:12
2:0
15:8:12
2:0
15:3:12
2:0
15:4:12
2:0
15:9:12
2:0
15:2:12
2:-1
1:10:12
-1:0
8:0:11
2:-1
14:4:11
2:0
14:3:12
2:0
14:10:12
2:0
14:0:12
2:-1
15:3:12
2:0
15:9:12
2:0
15:5:12
2:0
5:3:12
1:-1
9:3:12
2:0
15:10:12
2:0
14:1:12
2:-1
15:7:12
2:0
15:6:12
2:0
14:8:12
2:0
14:5:12
2:0
2:0:12
0:-1
11:3:12
2:0
14:3:12
2:-1
15:7:12
2:0
15:6:12
2:0
15:6:12
2:0
14:5:12
2:0
15:9:12
2:0
3:0:12
0:-1
7:1:12
1:-1
15:6:12
2:0
14:8:12
2:0
15:7:12
2:0
15:3:12
2:0
15:6:12
2:0
15:7:12
2:0
13:9:12
2:0
5:1:12
1:-1
9:2:12
2:-1
15:8:12
2:0
14:6:12
2:0
14:8:12
2:0
14:3:12
2:0
15:4:12
2:0
13:9:12
2:0
13:6:12
2:0
2:2:12
0:-1
10:4:12
2:0
14:5:12
2:0
15:6:12
2:0
14:2:12
2:-1
15:11:12
2:0
14:4:12
2:0
15:2:12
2:-1
14:8:12
2:0
4:1:12
1:-1
14:2:12
2:-1
15:2:12
2:-1
14:6:12
2:0
15:9:12
2:0
0:2:12
-1:-1
13:8:11
2:-1
14:5:11
2:0
3:3:12
0:-1
5:2:12
1:-1
12:10:12
2:0
14:3:12
2:0
15:6:12
2:0
15:2:12
2:-1
14:6:12
2:0
2:7:12
0:0
3:0:12
0:-1
8:4:12
2:0
14:9:12
2:0
15:5:12
2:0
15:4:12
2:0
15:4:12
2:0
15:8:12
2:0
15:2:12
2:-1
15:10:12
2:0
2:0:12
0:-1
8:3:12
2:0
14:7:12
2:0
13:10:12
2:0
15:8:12
2:0
15:1:12
2:-1
15:9:12
2:0
14:0:12
2:-1
1:7:12
-1:0
3:0:11
0:-1
0:6:11
-1:0
14:5:10
2:-1
15:3:10
2:0
15:6:11
2:0
15:1:12
2:-1
15:10:12
2:0
14:4:12
2:0
2:6:12
0:0
8:2:12
2:-1
14:6:12
2:0
15:4:12
2:0
15:13:12
2:1
15:2:12
2:-1
15:10:12
2:0
13:6:12
2:0
0:5:12
-1:0
6:4:11
1:0
13:10:12
2:0
15:2:12
2:-1
15:5:12
2:0
15:8:12
2:0
15:6:12
2:0
15:7:12
2:0
14:7:12
2:0
7:4:12
1:0
9:0:12
2:-1
15:7:12
2:0
15:5:12
2:0
15:5:12
2:0
14:6:12
2:0
14:8:12
2:0
15:2:12
2:-1
15:8:12
2:0
9:1:12
2:-1
13:3:12
2:0
15:5:12
2:0
14:6:12
2:0
14:4:12
2:0
15:7:12
2:0
15:6:12
2:0
15:6:12
2:0
1:5:12
-1:0
13:4:11
2:0
15:1:12
2:-1
15:6:12
2:0
15:11:12
2:0
15:2:12
2:-1
15:6:12
2:0
0:2:12
-1:-1
8:2:11
2:-1
12:3:11
2:0
13:11:12
2:0
15:5:12
2:0
15:2:12
2:-1
15:5:12
2:0
14:6:12
2:0
14:8:12
2:0
3:3:12
0:0
7:3:12
1:-1
15:10:12
2:0
15:10:12
2:0
14:4:12
2:0
14:2:12
2:-1
15:11:12
2:1
15:2:12
2:-1
15:8:12
2:0
4:1:12
1:-1
8:3:12
2:0
15:11:12
2:0
15:2:12
2:-1
14:7:12
2:0
15:7:12
2:0
15:1:12
2:-1
14:11:12
2:0
2:3:12
0:0
5:2:12
1:-1
9:5:12
2:0
14:12:12
2:1
15:3:12
2:-1
15:9:12
2:0
15:3:12
2:-1
15:8:12
2:0
15:5:12
2:0
6:3:12
1:-1
9:1:12
2:-1
13:10:12
2:0
13:5:12
2:0
15:7:12
2:0
15:6:12
2:0
14:8:12
2:0
14:3:12
2:0
15:6:12
2:0
1:4:12
-1:0
5:1:11
1:-1
14:9:11
2:0
15:5:12
2:0
15:1:12
2:-1
15:10:12
2:0
15:1:12
2:-1
0:11:12
-1:0
6:4:11
1:0
14:10:12
2:0
15:8:12
2:0
15:2:12
2:-1
15:6:12
2:0
15:5:12
2:0
15:8:12
2:0
2:10:12
0:0
6:3:12
1:0
13:7:12
2:0
15:7:12
2:0
14:1:12
2:-1
14:10:12
2:0
14:2:12
2:-1
14:4:12
2:0
15:6:12
2:0
2:4:12
0:0
6:1:12
1:-1
15:10:12
2:0
15:2:12
2:-1
14:6:12
2:0
14:3:12
2:0
15:6:12
2:0
15:6:12
2:0
15:2:12
2:-1
5:6:12
1:0
9:3:12
2:0
14:7:12
2:0
15:10:12
2:0
14:1:12
2:-1
14:8:12
2:0
15:2:12
2:-1
12:12:12
2:0
2:5:12
0:0
6:1:12
1:-1
12:7:12
2:0
15:8:12
2:0
15:9:12
2:0
15:2:12
2:-1
14:5:12
2:0
14:5:12
2:0
15:8:12
2:0
3:3:12
0:0
10:4:12
2:0
15:6:12
2:0
15:7:12
2:0
14:5:12
2:0
15:5:12
2:0
15:7:12
2:0
14:5:12
2:0
2:3:12
0:-1
6:3:12
1:0
12:7:12
2:0
15:5:12
2:0
15:8:12
2:0
15:2:12
2:-1
15:3:12
2:0
15:7:12
2:0
2:4:12
0:0
8:4:12
2:0
14:4:12
2:0
14:2:12
2:-1
14:7:12
2:0
14:9:12
2:0
15:1:12
2:-1
0:7:12
-1:0
14:6:11
2:-1
6:1:11
1:-1
11:4:11
2:0
13:1:12
2:-1
15:7:12
2:0
15:5:12
2:0
15:4:12
2:0
15:8:12
2:0
14:7:12
2:0
14:8:12
2:0
6:0:12
1:-1
11:2:12
2:-1
15:7:12
2:0
15:2:12
2:-1
15:7:12
2:0
15:7:12
2:0
15:6:12
2:0
12:10:12
2:0
3:1:12
0:-1
11:4:12
2:0
14:5:12
2:0
15:9:12
2:0
15:1:12
2:-1
15:7:12
2:0
15:4:12
2:0
15:10:12
2:0
4:1:12
1:-1
14:6:12
2:0
15:3:12
2:0
15:5:12
2:0
15:6:12
2:0
15:8:12
2:0
14:6:12
2:0
15:7:12
2:0
4:5:12
1:0
6:1:12
1:-1
13:12:12
2:0
13:4:12
2:0
14:5:12
2:0
14:5:12
2:0
15:7:12
2:0
15:3:12
2:0
14:9:12
2:0
6:0:12
1:-1
14:3:12
2:-1
15:5:12
2:0
15:6:12
2:0
14:4:12
2:0
15:9:12
2:0
15:2:12
2:-1
0:5:12
-1:0
4:3:11
1:0
11:7:12
2:0
14:6:12
2:0
15:8:12
2:0
14:2:12
2:-1
15:6:12
2:0
15:5:12
2:0
15:5:12
2:0
0:5:12
-1:0
8:6:11
2:0
15:5:12
2:0
14:7:12
2:0
15:7:12
2:0
12:5:12
2:-1
11:9:12
2:0
15:4:12
2:0
7:4:12
1:0
9:1:12
2:-1
15:9:12
2:0
15:8:12
2:0
15:1:12
2:-1
14:10:12
2:0
15:3:12
2:0
3:10:12
0:0
7:2:12
1:-1
14:7:12
2:0
15:8:12
2:0
15:1:12
2:-1
15:9:12
2:0
15:0:12
2:-1
15:5:12
2:0
15:8:12
2:0
1:5:12
-1:0
12:2:11
2:-1
15:1:11
2:-1
15:4:11
2:0
15:6:12
2:0
15:6:12
2:0
14:3:12
2:-1
15:6:12
2:0
0:6:12
-1:0
9:3:11
2:0
10:1:12
2:-1
15:9:12
2:0
13:4:12
2:-1
12:8:12
2:0
13:3:12
2:0
0:4:12
-1:0
13:10:11
2:-1
14:5:11
2:0
3:1:12
0:-1
15:11:12
2:0
15:2:12
2:-1
14:6:12
2:0
15:8:12
2:0
15:6:12
2:0
13:10:12
2:0
1:1:12
-1:-1
4:1:11
1:-1
15:10:11
2:0
15:2:12
2:-1
14:5:12
2:0
15:9:12
2:0
15:4:12
2:0
15:8:12
2:0
3:4:12
0:0
9:2:12
2:-1
13:4:12
2:0
14:7:12
2:0
14:5:12
2:0
14:7:12
2:0
15:6:12
2:0
13:8:12
2:0
13:5:12
2:0
9:0:12
2:-1
13:3:12
2:0
14:2:12
2:-1
15:5:12
2:0
14:6:12
2:0
15:7:12
2:0
15:6:12
2:0
0:10:12
-1:0
3:3:11
0:0
10:5:11
2:0
14:4:12
2:0
15:6:12
2:0
15:10:12
2:0
15:2:12
2:-1
15:6:12
2:0
0:7:12
-1:0
9:2:11
2:-1
10:1:11
2:-1
15:9:11
2:0
15:1:12
2:-1
14:11:12
2:0
15:5:12
2:0
13:9:12
2:0
1:6:12
-1:0
7:1:11
1:-1
14:6:11
2:0
15:6:12
2:0
14:12:12
2:1
15:4:12
2:0
14:6:12
2:0
15:9:12
2:0
4:2:12
1:-1
7:1:12
1:-1
13:6:12
2:0
14:10:12
2:0
15:3:12
2:0
15:7:12
2:0
15:4:12
2:-1
0:8:12
-1:0
0:6:11
-1:-1
10:5:10
2:0
14:2:11
2:-1
15:4:11
2:0
15:8:12
2:0
15:8:12
2:0
15:10:12
2:0
15:4:12
2:0
6:2:12
1:-1
10:1:12
2:-1
15:8:12
2:0
15:5:12
2:0
15:8:12
2:0
15:12:12
2:1
14:1:12
2:-1
7:6:12
1:0
9:1:12
2:-1
15:10:12
2:0
15:3:12
2:-1
15:4:12
2:0
14:5:12
2:0
14:6:12
2:0
15:3:12
2:0
7:0:12
1:-1
11:2:12
2:-1
14:7:12
2:0
15:5:12
2:0
15:4:12
2:0
14:2:12
2:-1
15:10:12
2:0
15:1:12
2:-1
0:7:12
-1:0
3:1:11
0:-1
14:11:11
2:1
15:2:12
2:-1
15:1:12
2:-1
15:8:12
2:0
15:8:12
2:0
12:10:12
2:0
0:6:12
-1:0
5:1:11
1:-1
13:8:11
2:0
15:9:12
2:0
15:4:12
2:0
15:10:12
2:0
14:4:12
2:0
14:10:12
2:0
0:2:12
-1:-1
5:4:11
1:0
13:12:12
2:0
14:10:12
2:0
15:1:12
2:-1
15:9:12
2:0
15:0:12
2:-1
15:12:12
2:0
15:3:12
2:-1
3:4:12
0:0
10:3:12
2:-1
15:7:12
2:0
15:4:12
2:0
15:9:12
2:0
15:5:12
2:0
15:9:12
2:0
1:7:12
-1:0
7:5:11
1:0
13:6:12
2:0
14:7:12
2:0
15:9:12
2:0
15:5:12
2:0
15:6:12
2:0
15:1:12
2:-1
4:4:12
1:0
11:2:12
2:-1
15:3:12
2:0
15:8:12
2:0
15:9:12
2:0
15:4:12
2:0
15:3:12
2:-1
14:11:12
2:0
0:3:12
-1:0
6:3:11
1:0
14:8:12
2:0
15:8:12
2:0
15:7:12
2:0
14:6:12
2:0
14:7:12
2:0
14:3:12
2:0
15:6:12
2:0
5:6:12
1:0
15:7:12
2:0
15:3:12
2:-1
15:8:12
2:0
15:9:12
2:0
15:3:12
2:0
15:10:12
2:0
15:5:12
2:0
12:1:12
2:-1
15:6:12
2:0
15:1:12
2:-1
15:7:12
2:0
15:6:12
2:0
15:10:12
2:0
14:4:12
2:0
0:4:12
-1:-1
11:6:11
2:-1
15:7:11
2:0
12:6:12
2:0
12:7:12
2:0
14:7:12
2:0
14:4:12
2:-1
13:9:12
2:0
13:5:12
2:0
5:1:12
1:-1
10:4:12
2:0
15:10:12
2:0
15:6:12
2:0
15:9:12
2:0
15:1:12
2:-1
15:7:12
2:0
3:5:12
0:0
8:3:12
2:-1
15:10:12
2:0
15:4:12
2:0
15:9:12
2:0
15:6:12
2:0
15:6:12
2:0
15:4:12
2:0
2:7:12
0:0
15:12:12
2:1
14:4:12
2:0
15:7:12
2:0
13:8:12
2:0
14:4:12
2:0
15:9:12
2:0
0:3:12
-1:0
8:3:11
2:0
15:7:12
2:0
15:5:12
2:0
14:8:12
2:0
14:3:12
2:0
15:4:12
2:0
14:2:12
2:-1
0:9:12
-1:0
3:4:11
0:-1
12:11:11
2:0
13:5:12
2:0
14:5:12
2:0
14:6:12
2:0
14:4:12
2:0
15:3:12
2:0
15:5:12
2:0
15:7:12
2:0
5:2:12
1:-1
8:2:12
2:-1
14:7:12
2:0
15:8:12
2:0
15:6:12
2:0
13:9:12
2:0
13:8:12
2:0
14:7:12
2:0
15:5:12
2:0
9:1:12
2:-1
14:3:12
2:0
15:6:12
2:0
15:4:12
2:0
0:7:12
-1:0
14:5:11
2:-1
14:1:11
2:-1
15:9:11
2:0
15:4:12
2:0
2:3:12
0:0
6:3:12
1:-1
13:8:12
2:0
14:8:12
2:0
15:7:12
2:0
15:1:12
2:-1
15:10:12
2:0
15:8:12
2:0
15:1:12
2:-1
3:4:12
0:0
7:2:12
1:-1
15:12:12
2:1
15:1:12
2:-1
15:4:12
2:0
15:7:12
2:0
14:8:12
2:0
15:7:12
2:0
15:6:12
2:0
4:1:12
1:-1
12:2:12
2:-1
15:4:12
2:0
15:7:12
2:0
13:8:12
2:0
13:7:12
2:0
15:5:12
2:0
2:9:12
0:0
7:4:12
1:0
15:9:12
2:0
14:4:12
2:0
15:6:12
2:0
15:7:12
2:0
15:4:12
2:0
0:6:12
-1:0
4:1:11
1:-1
15:9:11
2:0
15:2:12
2:-1
14:7:12
2:0
15:3:12
2:0
0:3:12
-1:-1
12:8:11
2:-1
12:5:11
2:0
2:2:12
0:-1
9:4:12
2:0
15:3:12
2:0
15:3:12
2:-1
15:8:12
2:0
15:4:12
2:0
14:5:12
2:0
14:10:12
2:0
2:5:12
0:0
8:5:12
2:0
14:6:12
2:0
15:4:12
2:0
15:9:12
2:0
15:5:12
2:0
15:7:12
2:0
15:7:12
2:0
14:6:12
2:0
2:3:12
0:-1
8:5:12
2:0
13:10:12
2:0
15:11:12
2:0
15:6:12
2:0
15:8:12
2:0
15:9:12
2:0
0:5:12
-1:0
8:6:11
2:0
15:9:12
2:0
15:5:12
2:0
14:7:12
2:0
14:5:12
2:0
15:5:12
2:0
13:7:12
2:0
5:5:12
1:0
9:3:12
2:0
15:9:12
2:0
15:8:12
2:0
13:10:12
2:0
12:6:12
2:0
14:8:12
2:0
1:3:12
-1:-1
9:6:11
2:0
15:7:12
2:0
15:7:12
2:0
14:7:12
2:0
15:5:12
2:0
15:4:12
2:0
14:11:12
2:0
15:4:12
2:0
9:3:12
2:0
11:2:12
2:-1
15:5:12
2:0
15:9:12
2:0
14:7:12
2:0
15:3:12
2:0
14:6:12
2:0
3:7:12
0:0
6:2:12
1:-1
15:10:12
2:0
15:5:12
2:0
15:6:12
2:0
13:10:12
2:0
13:6:12
2:0
15:5:12
2:0
7:1:12
1:-1
14:5:12
2:0
15:3:12
2:0
15:8:12
2:0
15:10:12
2:0
15:2:12
2:-1
15:7:12
2:0
4:4:12
1:-1
12:7:12
2:0
15:3:12
2:0
15:10:12
2:0
15:3:12
2:0
15:10:12
2:0
15:4:12
2:0
15:3:12
2:-1
0:9:12
-1:0
10:8:11
2:0
12:1:12
2:-1
15:10:12
2:0
15:3:12
2:-1
15:8:12
2:0
15:7:12
2:0
15:10:12
2:0
0:0:12
-1:-1
5:4:11
1:0
15:10:12
2:0
15:3:12
2:0
15:7:12
2:0
15:5:12
2:0
15:5:12
2:0
14:8:12
2:0
14:6:12
2:0
2:1:12
0:-1
10:7:12
2:0
14:3:12
2:0
14:9:12
2:0
14:7:12
2:0
15:7:12
2:0
13:2:12
2:-1
15:8:12
2:0
3:4:12
0:-1
13:3:12
2:0
15:2:12
2:-1
15:6:12
2:0
15:5:12
2:0
14:8:12
2:0
14:5:12
2:0
14:6:12
2:0
3:4:12
0:0
9:5:12
2:0
15:6:12
2:0
14:7:12
2:0
13:9:12
2:0
1:5:12
-1:0
13:6:11
2:-1
14:1:11
2:-1
4:1:11
1:-1
15:5:11
2:0
13:3:12
2:-1
15:2:12
2:-1
15:11:12
2:0
15:7:12
2:0
14:11:12
2:1
15:2:12
2:-1
7:3:12
1:0
9:1:12
2:-1
14:8:12
2:0
15:2:12
2:-1
15:2:12
2:-1
15:1:12
2:-1
15:10:12
2:0
15:4:12
2:0
2:3:12
0:-1
6:2:12
1:-1
14:10:12
2:0
14:5:12
2:0
15:7:12
2:0
15:4:12
2:-1
15:7:12
2:0
14:9:12
2:0
2:4:12
0:0
11:2:12
2:-1
15:2:12
2:-1
15:7:12
2:0
15:7:12
2:0
15:7:12
2:0
15:7:12
2:0
15:1:12
2:-1
14:8:12
2:0
10:1:12
2:-1
15:2:12
2:-1
15:4:12
2:0
0:10:12
-1:0
2:3:11
0:-1
12:4:11
2:-1
14:6:11
2:0
15:9:12
2:0
3:3:12
0:-1
11:7:12
2:0
14:5:12
2:0
15:6:12
2:0
15:1:12
2:-1
15:8:12
2:0
15:3:12
2:-1
0:9:12
-1:0
9:7:11
2:0
14:3:12
2:0
0:4:12
-1:-1
14:8:11
2:-1
14:2:11
2:-1
15:8:11
2:0
15:5:12
2:0
14:6:12
2:0
14:3:12
2:-1
6:1:12
1:-1
12:6:12
2:0
1:10:12
-1:0
12:4:11
2:-1
14:3:11
2:0
15:9:12
2:0
14:3:12
2:0
2:6:12
0:0
11:6:12
2:0
14:2:12
2:-1
15:7:12
2:0
14:10:12
2:0
14:4:12
2:0
15:8:12
2:0
15:2:12
2:-1
8:3:12
2:-1
13:5:12
2:0
14:9:12
2:0
15:3:12
2:-1
15:8:12
2:0
14:10:12
2:0
14:3:12
2:0
2:1:12
0:-1
11:9:12
2:0
14:7:12
2:0
14:7:12
2:0
15:6:12
2:0
15:5:12
2:0
15:7:12
2:0
14:9:12
2:0
2:1:12
0:-1
9:1:12
2:-1
14:6:12
2:0
14:6:12
2:0
15:6:12
2:0
14:9:12
2:0
14:1:12
2:-1
15:7:12
2:0
4:0:12
1:-1
14:5:12
2:0
15:1:12
2:-1
15:9:12
2:0
15:5:12
2:0
15:8:12
2:0
15:7:12
2:0
14:7:12
2:0
0:9:12
-1:0
12:11:11
2:0
12:3:12
2:0
14:7:12
2:0
15:5:12
2:0
14:6:12
2:0
15:7:12
2:0
15:10:12
2:0
3:0:12
0:-1
5:1:12
1:-1
14:10:12
2:0
15:6:12
2:0
15:6:12
2:0
15:5:12
2:0
15:6:12
2:0
15:8:12
2:0
15:6:12
2:0
0:1:12
-1:-1
10:9:11
2:0
15:7:12
2:0
15:2:12
2:-1
15:8:12
2:0
14:9:12
2:0
15:4:12
2:0
15:1:12
2:-1
3:1:12
0:-1
11:10:12
2:0
12:8:12
2:0
15:8:12
2:0
15:6:12
2:0
14:2:12
2:-1
14:8:12
2:0
1:2:12
-1:-1
2:1:11
0:-1
14:12:11
2:1
15:3:12
2:0
15:10:12
2:0
15:3:12
2:0
15:3:12
2:0
15:5:12
2:0
4:4:12
1:0
15:4:12
2:0
15:1:12
2:-1
15:6:12
2:0
15:8:12
2:0
14:7:12
2:0
15:3:12
2:0
0:6:12
-1:0
3:1:11
0:-1
13:10:11
2:1
15:4:12
2:0
0:4:12
-1:-1
12:6:11
2:-1
15:2:11
2:-1
15:4:11
2:0
0:9:12
-1:0
4:1:11
1:-1
14:10:11
2:0
15:5:12
2:0
15:9:12
2:0
14:6:12
2:0
14:8:12
2:0
13:7:12
2:0
10:10:12
2:0
9:3:12
2:0
13:3:12
2:0
14:6:12
2:0
15:7:12
2:0
15:1:12
2:-1
15:6:12
2:0
15:9:12
2:0
4:4:12
1:0
9:4:12
2:0
15:8:12
2:0
15:6:12
2:0
15:7:12
2:0
15:1:12
2:-1
15:9:12
2:0
15:4:12
2:0
15:9:12
2:0
2:2:12
0:-1
14:5:12
2:0
14:1:12
2:-1
15:10:12
2:0
14:1:12
2:-1
15:11:12
2:0
15:1:12
2:-1
15:10:12
2:0
3:0:12
0:-1
12:8:12
2:0
15:7:12
2:0
15:2:12
2:-1
15:6:12
2:0
14:9:12
2:0
15:5:12
2:0
0:6:12
-1:0
5:4:11
1:0
11:5:12
2:0
14:6:12
2:0
15:5:12
2:0
14:5:12
2:0
15:8:12
2:0
15:3:12
2:0
14:3:12
2:0
7:2:12
1:-1
9:1:12
2:-1
15:8:12
2:0
15:3:12
2:-1
15:6:12
2:0
14:10:12
2:0
15:4:12
2:0
15:4:12
2:0
0:4:12
-1:-1
2:2:11
0:-1
11:9:11
2:0
0:5:12
-1:0
12:6:11
2:-1
15:2:11
2:-1
15:6:11
2:0
14:6:12
2:0
15:8:12
2:0
0:3:12
-1:-1
7:5:11
1:0
14:7:12
2:0
15:6:12
2:0
3:8:12
0:0
11:7:12
2:-1
14:8:12
2:0
15:4:12
2:0
4:2:12
1:-1
11:3:12
2:0
12:1:12
2:-1
15:9:12
2:0
14:6:12
2:0
15:5:12
2:0
15:1:12
2:-1
15:8:12
2:0
0:8:12
-1:0
2:1:11
0:-1
15:11:11
2:1
15:2:12
2:-1
15:9:12
2:0
15:5:12
2:0
14:7:12
2:0
15:5:12
2:0
14:8:12
2:0
9:0:12
2:-1
15:2:12
2:-1
14:4:12
2:0
14:6:12
2:0
0:5:12
-1:0
12:5:11
2:-1
12:8:11
2:0
14:5:12
2:0
3:2:12
0:-1
12:4:12
2:0
13:3:12
2:-1
14:9:12
2:0
15:2:12
2:-1
15:8:12
2:0
15:5:12
2:0
15:7:12
2:0
0:3:12
-1:-1
10:9:11
2:0
14:2:12
2:-1
15:6:12
2:0
14:2:12
2:-1
15:10:12
2:0
15:1:12
2:-1
0:8:12
-1:0
7:1:11
1:-1
11:4:11
2:0
15:8:12
2:0
15:3:12
2:-1
15:10:12
2:0
13:5:12
2:0
12:11:12
2:0
14:4:12
2:0
2:2:12
0:-1
11:9:12
2:0
15:7:12
2:0
14:3:12
2:0
14:4:12
2:0
15:4:12
2:0
15:8:12
2:0
0:5:12
-1:0
11:9:11
2:0
13:7:12
2:0
13:6:12
2:0
15:9:12
2:0
15:6:12
2:0
15:6:12
2:0
15:3:12
2:0
8:0:12
2:-1
15:3:12
2:-1
15:4:12
2:0
15:7:12
2:0
15:11:12
2:1
15:2:12
2:-1
3:11:12
0:1
7:1:12
1:-1
8:2:12
2:-1
14:9:12
2:0
15:2:12
2:-1
12:8:12
2:0
12:6:12
2:0
14:9:12
2:0
1:4:12
-1:0
3:0:11
0:-1
13:5:11
2:0
15:2:12
2:-1
15:5:12
2:0
15:5:12
2:0
15:7:12
2:0
15:6:12
2:0
3:10:12
0:0
8:3:12
2:0
12:5:12
2:0
15:8:12
2:0
15:7:12
2:0
15:2:12
2:-1
15:4:12
2:0
15:9:12
2:0
7:2:12
1:-1
14:1:12
2:-1
14:5:12
2:0
15:7:12
2:0
14:5:12
2:0
15:4:12
2:0
15:2:12
2:-1
2:0:12
0:-1
13:5:12
2:0
14:2:12
2:-1
0:8:12
-1:0
13:3:11
2:-1
14:7:11
2:0
15:3:12
2:0
0:9:12
-1:0
6:1:11
1:-1
12:6:11
2:0
14:7:12
2:0
0:3:12
-1:-1
13:3:11
2:-1
13:7:11
2:0
15:5:12
2:0
3:6:12
0:0
6:3:12
1:0
13:7:12
2:0
15:8:12
2:0
15:5:12
2:0
15:5:12
2:0
14:7:12
2:0
15:8:12
2:0
0:2:12
-1:-1
9:4:11
2:0
15:5:12
2:0
15:4:12
2:0
15:8:12
2:0
15:7:12
2:0
14:11:12
2:1
6:4:12
1:0
15:6:12
2:0
15:4:12
2:0
13:8:12
2:0
12:6:12
2:0
14:6:12
2:0
15:8:12
2:0
0:3:12
-1:-1
2:3:11
0:-1
9:7:11
2:0
14:3:12
2:0
15:7:12
2:0
15:6:12
2:0
15:7:12
2:0
14:9:12
2:0
15:5:12
2:0
0:5:12
-1:0
11:8:11
2:0
15:3:12
2:0
15:8:12
2:0
14:1:12
2:-1
15:7:12
2:0
13:9:12
2:0
14:3:12
2:0
1:3:12
-1:0
10:2:11
2:-1
15:2:11
2:-1
15:7:11
2:0
15:1:12
2:-1
14:10:12
2:0
14:5:12
2:0
15:2:12
2:-1
7:2:12
1:-1
15:4:12
2:0
10:9:12
2:0
8:8:12
2:0
12:7:12
2:0
13:8:12
2:0
13:9:12
2:0
13:3:12
2:0
5:2:12
1:-1
14:7:12
2:0
15:3:12
2:0
15:9:12
2:0
15:3:12
2:0
15:3:12
2:-1
14:7:12
2:0
0:8:12
-1:0
3:4:11
0:0
12:10:11
2:0
15:4:12
2:0
15:5:12
2:0
14:9:12
2:0
14:2:12
2:-1
14:11:12
2:1
2:2:12
0:-1
7:1:12
1:-1
15:9:12
2:0
15:9:12
2:0
15:7:12
2:0
15:4:12
2:0
14:9:12
2:0
15:4:12
2:0
7:0:12
1:-1
9:1:12
2:-1
15:10:12
2:0
15:5:12
2:0
15:6:12
2:0
15:3:12
2:-1
15:8:12
2:0
0:2:12
-1:-1
5:4:11
1:0
14:10:12
2:0
0:1:12
-1:-1
12:9:11
2:-1
12:3:11
2:0
15:8:12
2:0
15:3:12
2:-1
1:10:12
-1:0
6:1:11
1:-1
15:5:11
2:0
14:1:12
2:-1
15:9:12
2:0
15:5:12
2:0
15:6:12
2:0
15:5:12
2:0
3:5:12
0:0
8:3:12
2:0
15:6:12
2:0
15:3:12
2:-1
15:4:12
2:0
15:2:12
2:-1
15:10:12
2:0
14:6:12
2:0
15:4:12
2:0
0:1:12
-1:-1
8:3:11
2:-1
11:7:11
2:0
15:7:12
2:0
15:5:12
2:0
15:6:12
2:0
15:6:12
2:0
15:5:12
2:0
1:8:12
-1:0
8:1:11
2:-1
12:3:11
2:0
14:10:12
2:0
15:6:12
2:0
15:4:12
2:0
14:4:12
2:-1
0:6:12
-1:0
0:7:11
-1:-1
13:9:10
2:0
14:2:11
2:-1
15:7:11
2:0
15:3:12
2:-1
14:10:12
2:0
15:5:12
2:0
15:8:12
2:0
3:1:12
0:-1
8:2:12
2:-1
15:10:12
2:0
15:7:12
2:0
15:6:12
2:0
15:3:12
2:0
14:4:12
2:0
0:8:12
-1:0
13:4:11
2:-1
7:3:11
1:-1
15:7:11
2:0
15:1:12
2:-1
14:8:12
2:0
15:4:12
2:0
15:7:12
2:0
14:3:12
2:-1
15:8:12
2:0
15:3:12
2:-1
9:0:12
2:-1
14:4:12
2:0
15:9:12
2:0
15:7:12
2:0
15:6:12
2:0
15:10:12
2:0
0:3:12
-1:0
5:1:11
1:-1
14:11:11
2:0
15:3:12
2:0
15:8:12
2:0
15:1:12
2:-1
15:9:12
2:0
14:3:12
2:-1
0:9:12
-1:0
10:4:11
2:0
14:4:12
2:0
15:6:12
2:0
14:10:12
2:0
15:5:12
2:0
14:2:12
2:-1
1:9:12
-1:0
2:1:11
0:-1
12:8:11
2:0
13:8:12
2:0
13:7:12
2:0
15:9:12
2:0
14:6:12
2:0
15:4:12
2:0
15:7:12
2:0
10:1:12
2:-1
15:2:12
2:-1
15:3:12
2:0
13:9:12
2:0
15:5:12
2:0
15:6:12
2:0
14:10:12
2:0
7:1:12
1:-1
8:1:12
2:-1
14:9:12
2:0
15:5:12
2:0
15:4:12
2:0
14:1:12
2:-1
0:6:12
-1:0
14:7:11
2:-1
4:1:11
1:-1
14:6:11
2:0
15:5:12
2:0
15:6:12
2:0
14:1:12
2:-1
15:8:12
2:0
15:5:12
2:0
15:8:12
2:0
6:2:12
1:-1
10:1:12
2:-1
15:10:12
2:0
15:2:12
2:-1
14:8:12
2:0
15:4:12
2:0
15:1:12
2:-1
2:7:12
0:0
6:2:12
1:-1
15:9:12
2:0
15:6:12
2:0
15:13:12
2:1
15:2:12
2:-1
15:6:12
2:0
2:4:12
0:0
6:1:12
1:-1
12:6:12
2:0
14:7:12
2:0
15:5:12
2:0
14:3:12
2:-1
14:8:12
2:0
15:3:12
2:0
1:2:12
-1:-1
11:2:11
2:-1
15:4:11
2:0
15:3:12
2:-1
15:6:12
2:0
15:7:12
2:0
15:2:12
2:-1
15:9:12
2:0
15:6:12
2:0
0:4:12
-1:-1
4:6:11
1:-1
11:7:11
2:0
15:7:12
2:0
14:7:12
2:0
15:1:12
2:-1
15:6:12
2:0
15:8:12
2:0
15:7:12
2:0
1:4:12
-1:-1
12:7:11
2:0
15:2:12
2:-1
15:7:12
2:0
15:6:12
2:0
15:5:12
2:0
15:8:12
2:0
15:6:12
2:0
15:6:12
2:0
0:4:12
-1:0
6:3:11
1:-1
13:7:11
2:0
15:2:12
2:-1
15:2:12
2:-1
15:4:12
2:0
14:8:12
2:0
15:6:12
2:0
15:5:12
2:0
6:2:12
1:-1
8:1:12
2:-1
15:8:12
2:0
14:1:12
2:-1
14:10:12
2:0
15:4:12
2:0
15:6:12
2:0
15:5:12
2:0
0:4:12
-1:0
8:3:11
2:0
10:2:12
2:-1
12:1:12
2:-1
15:12:12
2:0
15:2:12
2:-1
15:2:12
2:-1
15:9:12
2:0
15:4:12
2:0
4:4:12
1:-1
10:4:12
2:0
14:12:12
2:1
15:2:12
2:-1
14:2:12
2:-1
15:6:12
2:0
14:8:12
2:0
15:8:12
2:0
0:1:12
-1:-1
9:3:11
2:0
13:1:12
2:-1
15:4:12
2:0
15:9:12
2:0
15:7:12
2:0
15:5:12
2:0
15:6:12
2:0
5:5:12
1:0
8:1:12
2:-1
12:5:12
2:0
14:7:12
2:0
15:1:12
2:-1
13:9:12
2:0
14:10:12
2:0
15:2:12
2:-1
2:6:12
0:0
8:5:12
2:0
13:5:12
2:0
15:8:12
2:0
15:2:12
2:-1
15:10:12
2:0
15:3:12
2:0
15:5:12
2:0
9:3:12
2:-1
12:2:12
2:-1
15:9:12
2:0
0:6:12
-1:0
13:7:11
2:-1
15:4:11
2:0
15:3:12
2:0
0:7:12
-1:0
8:1:11
2:-1
11:3:11
2:-1
15:8:11
2:0
15:3:12
2:-1
15:8:12
2:0
15:6:12
2:0
15:8:12
2:0
1:4:12
-1:-1
12:8:11
2:0
15:5:12
2:0
13:5:12
2:0
13:9:12
2:0
15:3:12
2:0
15:6:12
2:0
15:4:12
2:0
5:3:12
1:-1
9:2:12
2:-1
12:9:12
2:0
11:6:12
2:0
15:9:12
2:0
14:2:12
2:-1
15:9:12
2:0
15:6:12
2:0
15:9:12
2:0
8:2:12
2:-1
13:3:12
2:0
14:9:12
2:0
14:3:12
2:0
15:5:12
2:0
14:1:12
2:-1
15:7:12
2:0
15:4:12
2:0
14:7:12
2:0
5:3:12
1:-1
0:4:12
-1:0
13:6:11
2:-1
15:5:11
2:0
15:1:12
2:-1
15:8:12
2:0
14:10:12
2:0
15:5:12
2:0
2:0:12
0:-1
10:2:12
2:-1
15:6:12
2:0
14:7:12
2:0
15:4:12
2:0
15:8:12
2:0
14:5:12
2:0
15:6:12
2:0
0:4:12
-1:0
2:1:11
0:-1
12:10:11
2:0
15:3:12
2:-1
14:11:12
2:0
14:7:12
2:0
15:8:12
2:0
14:6:12
2:0
0:7:12
-1:0
10:6:11
2:0
15:4:12
2:0
15:8:12
2:0
14:1:12
2:-1
0:6:12
-1:0
13:6:11
2:-1
13:2:11
2:-1
14:10:11
2:1
7:3:12
1:-1
10:5:12
2:0
13:7:12
2:0
15:5:12
2:0
15:10:12
2:0
15:3:12
2:0
15:4:12
2:-1
2:6:12
0:0
4:2:12
1:-1
11:7:12
2:0
13:2:12
2:-1
14:10:12
2:0
15:5:12
2:0
15:12:12
2:1
15:3:12
2:0
15:6:12
2:0
3:0:12
0:-1
12:8:12
2:0
14:5:12
2:0
14:8:12
2:0
15:2:12
2:-1
15:7:12
2:0
15:8:12
2:0
14:7:12
2:0
6:2:12
1:-1
11:2:12
2:-1
15:9:12
2:0
15:4:12
2:0
15:8:12
2:0
15:4:12
2:-1
15:8:12
2:0
15:6:12
2:0
0:6:12
-1:0
5:3:11
1:0
14:10:12
2:0
15:2:12
2:-1
15:6:12
2:0
15:12:12
2:1
15:5:12
2:0
0:5:12
-1:0
5:4:11
1:-1
9:4:11
2:0
14:6:12
2:0
15:7:12
2:0
15:3:12
2:0
15:4:12
2:0
15:8:12
2:0
15:6:12
2:0
3:5:12
0:0
15:8:12
2:0
14:1:12
2:-1
14:10:12
2:0
15:5:12
2:0
15:4:12
2:0
15:8:12
2:0
3:0:12
0:-1
9:7:12
2:0
14:6:12
2:0
15:5:12
2:0
1:10:12
-1:0
12:6:11
2:-1
13:4:11
2:0
0:8:12
-1:0
3:3:11
0:0
12:8:11
2:0
14:2:12
2:-1
15:8:12
2:0
15:7:12
2:0
15:4:12
2:0
13:9:12
2:0
15:3:12
2:0
3:7:12
0:0
11:7:12
2:0
15:7:12
2:0
0:3:12
-1:-1
13:10:11
2:-1
14:5:11
2:0
13:10:12
2:0
13:4:12
2:0
3:2:12
0:-1
10:1:12
2:-1
15:5:12
2:0
15:10:12
2:0
13:8:12
2:0
13:7:12
2:0
15:12:12
2:1
6:0:12
1:-1
10:2:12
2:-1
13:2:12
2:-1
15:8:12
2:0
15:4:12
2:0
15:6:12
2:0
14:11:12
2:0
14:8:12
2:0
0:3:12
-1:0
8:2:11
2:-1
14:5:11
2:0
15:7:12
2:0
15:9:12
2:0
14:7:12
2:0
15:5:12
2:0
15:1:12
2:-1
8:4:12
2:0
15:2:12
2:-1
15:6:12
2:0
14:9:12
2:0
15:5:12
2:0
15:6:12
2:0
15:8:12
2:0
0:8:12
-1:0
9:5:11
2:0
11:2:12
2:-1
14:6:12
2:0
15:8:12
2:0
15:5:12
2:0
14:6:12
2:0
14:8:12
2:0
15:5:12
2:0
1:7:12
-1:0
8:3:11
2:0
15:6:12
2:0
0:2:12
-1:-1
14:10:11
2:-1
15:4:11
2:0
15:8:12
2:0
15:5:12
2:0
15:6:12
2:0
2:6:12
0:0
8:7:12
2:0
15:12:12
2:1
15:5:12
2:0
15:2:12
2:-1
15:3:12
2:-1
15:8:12
2:0
15:8:12
2:0
3:6:12
0:0
8:4:12
2:0
14:9:12
2:0
15:3:12
2:0
15:8:12
2:0
15:3:12
2:-1
15:8:12
2:0
15:6:12
2:0
0:2:12
-1:-1
1:1:11
-1:-1
10:7:10
2:0
13:2:11
2:-1
15:9:11
2:0
15:5:12
2:0
14:10:12
2:0
14:11:12
2:0
14:5:12
2:0
2:5:12
0:0
10:2:12
2:-1
15:4:12
2:0
14:7:12
2:0
14:6:12
2:0
13:9:12
2:0
13:7:12
2:0
15:8:12
2:0
1:0:12
-1:-1
6:4:11
1:0
11:5:12
2:0
13:15:12
2:1
12:1:12
2:-1
15:6:12
2:0
15:5:12
2:0
15:10:12
2:0
1:5:12
-1:0
4:0:11
1:-1
10:3:11
2:-1
14:4:11
2:0
15:8:12
2:0
15:6:12
2:0
0:9:12
-1:0
12:6:11
2:-1
13:2:11
2:-1
4:3:11
1:-1
9:2:11
2:-1
9:1:11
2:-1
15:9:11
2:0
14:6:12
2:0
14:8:12
2:0
13:4:12
2:0
14:9:12
2:0
0:2:12
-1:-1
4:3:11
1:0
6:2:12
1:-1
15:10:12
2:0
15:10:12
2:0
15:3:12
2:0
15:7:12
2:0
15:5:12
2:0
15:7:12
2:0
15:5:12
2:0
3:3:12
0:0
12:6:12
2:0
15:7:12
2:0
15:6:12
2:0
15:2:12
2:-1
15:9:12
2:0
15:7:12
2:0
2:8:12
0:0
8:4:12
2:0
15:11:12
2:0
14:2:12
2:-1
15:6:12
2:0
15:5:12
2:0
15:6:12
2:0
15:5:12
2:0
2:7:12
0:0
9:7:12
2:0
15:5:12
2:0
15:5:12
2:0
15:7:12
2:0
15:8:12
2:0
15:5:12
2:0
15:8:12
2:0
3:0:12
0:-1
10:6:12
2:0
15:6:12
2:0
15:7:12
2:0
15:8:12
2:0
15:10:12
2:0
14:1:12
2:-1
15:7:12
2:0
2:4:12
0:0
11:8:12
2:0
15:4:12
2:0
15:6:12
2:0
15:7:12
2:0
14:7:12
2:0
14:5:12
2:0
14:3:12
2:0
2:4:12
0:0
5:0:12
1:-1
13:8:12
2:0
15:2:12
2:-1
15:8:12
2:0
0:4:12
-1:0
12:8:11
2:-1
15:4:11
2:0
6:4:12
1:0
7:1:12
1:-1
14:6:12
2:0
15:6:12
2:0
15:4:12
2:0
15:9:12
2:0
15:2:12
2:-1
15:10:12
2:0
15:2:12
2:-1
3:2:12
0:-1
13:9:12
2:0
14:1:12
2:-1
15:6:12
2:0
13:5:12
2:0
14:6:12
2:0
14:7:12
2:0
15:4:12
2:0
1:7:12
-1:0
8:0:11
2:-1
14:1:11
2:-1
15:6:11
2:0
15:6:12
2:0
15:3:12
2:0
15:5:12
2:0
15:7:12
2:0
14:8:12
2:0
6:2:12
1:-1
12:2:12
2:-1
15:6:12
2:0
15:4:12
2:-1
15:8:12
2:0
14:7:12
2:0
14:9:12
2:0
15:2:12
2:-1
3:3:12
0:0
11:8:12
2:0
14:6:12
2:0
15:11:12
2:0
15:7:12
2:0
14:2:12
2:-1
15:9:12
2:0
15:6:12
2:0
0:5:12
-1:-1
11:2:11
2:-1
14:8:11
2:0
15:8:12
2:0
14:1:12
2:-1
15:5:12
2:0
15:6:12
2:0
0:9:12
-1:0
5:3:11
1:0
15:10:12
2:0
15:11:12
2:0
14:4:12
2:0
14:5:12
2:0
15:6:12
2:0
15:1:12
2:-1
0:6:12
-1:0
6:2:11
1:-1
15:10:11
2:0
15:3:12
2:-1
14:13:12
2:1
15:7:12
2:0
15:2:12
2:-1
14:9:12
2:0
14:5:12
2:0
9:2:12
2:-1
13:1:12
2:-1
15:5:12
2:0
13:6:12
2:0
15:5:12
2:0
15:1:12
2:-1
15:10:12
2:0
13:6:12
2:0
2:2:12
0:-1
14:1:12
2:-1
14:3:12
2:-1
15:8:12
2:0
15:6:12
2:0
15:9:12
2:0
15:8:12
2:0
6:2:12
1:-1
11:1:12
2:-1
15:5:12
2:0
15:1:12
2:-1
14:5:12
2:0
14:11:12
2:1
15:5:12
2:0
14:7:12
2:0
6:1:12
1:-1
7:2:12
1:-1
14:6:12
2:0
15:5:12
2:0
15:6:12
2:0
15:2:12
2:-1
15:9:12
2:0
15:3:12
2:-1
15:6:12
2:0
3:2:12
0:-1
13:6:12
2:0
15:1:12
2:-1
14:5:12
2:0
15:7:12
2:0
15:5:12
2:0
15:2:12
2:-1
0:10:12
-1:0
0:4:11
-1:-1
7:7:10
1:0
14:6:11
2:0
15:10:12
2:0
15:2:12
2:-1
15:9:12
2:0
15:9:12
2:0
15:7:12
2:0
0:4:12
-1:0
5:6:11
1:0
11:6:12
2:0
14:7:12
2:0
14:4:12
2:0
15:8:12
2:0
15:4:12
2:-1
15:7:12
2:0
15:2:12
2:-1
4:6:12
1:0
12:7:12
2:0
14:8:12
2:0
15:8:12
2:0
15:4:12
2:0
15:4:12
2:0
15:9:12
2:0
15:4:12
2:0
4:1:12
1:-1
12:7:12
2:0
14:6:12
2:0
15:8:12
2:0
15:6:12
2:0
15:8:12
2:0
15:7:12
2:0
14:7:12
2:0
0:1:12
-1:-1
5:3:11
1:0
13:9:12
2:0
0:3:12
-1:-1
14:7:11
2:-1
14:2:11
2:-1
15:8:11
2:0
15:2:12
2:-1
13:8:12
2:0
4:3:12
1:0
8:3:12
2:0
12:5:12
2:0
15:7:12
2:0
15:2:12
2:-1
15:6:12
2:0
15:7:12
2:0
14:2:12
2:-1
0:8:12
-1:0
2:1:11
0:-1
15:12:11
2:1
14:2:12
2:-1
14:6:12
2:0
14:6:12
2:0
0:3:12
-1:-1
13:9:11
2:-1
14:5:11
2:0
4:6:12
1:0
15:3:12
2:0
15:2:12
2:-1
15:9:12
2:0
15:5:12
2:0
15:5:12
2:0
15:8:12
2:0
3:4:12
0:-1
9:5:12
2:0
15:8:12
2:0
15:6:12
2:0
14:9:12
2:0
14:8:12
2:0
15:7:12
2:0
15:9:12
2:0
4:1:12
1:-1
12:4:12
2:0
15:2:12
2:-1
15:8:12
2:0
14:8:12
2:0
15:4:12
2:0
15:6:12
2:0
15:7:12
2:0
1:5:12
-1:0
8:1:11
2:-1
12:3:11
2:-1
14:10:11
2:0
15:3:12
2:0
15:1:12
2:-1
14:10:12
2:0
15:9:12
2:0
0:4:12
-1:0
11:8:11
2:0
14:2:12
2:-1
15:4:12
2:0
14:12:12
2:1
15:1:12
2:-1
15:6:12
2:0
15:8:12
2:0
0:6:12
-1:0
4:8:11
1:-1
7:1:11
1:-1
14:7:11
2:0
15:8:12
2:0
12:8:12
2:0
12:6:12
2:0
12:6:12
2:0
13:4:12
2:-1
15:10:12
2:0
2:2:12
0:-1
7:1:12
1:-1
12:5:12
2:0
15:6:12
2:0
15:4:12
2:0
15:4:12
2:0
15:11:12
2:0
14:6:12
2:0
0:3:12
-1:-1
3:4:11
0:-1
8:1:11
2:-1
14:6:11
2:0
15:5:12
2:0
14:8:12
2:0
13:11:12
2:0
0:8:12
-1:-1
10:6:11
2:-1
12:4:11
2:0
2:0:12
0:-1
11:8:12
2:0
15:3:12
2:0
15:7:12
2:0
15:4:12
2:0
15:11:12
2:0
0:2:12
-1:-1
14:9:11
2:-1
14:3:11
2:0
2:1:12
0:-1
7:3:12
1:0
14:7:12
2:0
15:6:12
2:0
15:6:12
2:0
15:4:12
2:0
15:10:12
2:0
14:4:12
2:0
1:7:12
-1:0
3:1:11
0:-1
15:11:11
2:1
15:6:12
2:0
14:5:12
2:0
15:6:12
2:0
15:4:12
2:0
15:5:12
2:0
15:8:12
2:0
2:6:12
0:0
9:0:12
2:-1
11:1:12
2:-1
15:8:12
2:0
15:5:12
2:0
14:9:12
2:0
0:2:12
-1:-1
14:8:11
2:-1
14:1:11
2:-1
3:5:11
0:0
15:9:11
2:0
15:3:12
2:0
15:1:12
2:-1
0:9:12
-1:0
2:7:11
0:-1
12:2:11
2:-1
12:6:11
2:0
0:5:12
-1:0
3:2:11
0:-1
12:9:11
2:0
13:5:12
2:0
13:7:12
2:0
15:11:12
2:0
15:1:12
2:-1
15:10:12
2:0
14:2:12
2:-1
3:3:12
0:0
10:3:12
2:-1
15:8:12
2:0
14:2:12
2:-1
15:9:12
2:0
14:3:12
2:-1
15:7:12
2:0
14:4:12
2:0
15:6:12
2:0
7:0:12
1:-1
11:2:12
2:-1
15:6:12
2:0
15:6:12
2:0
15:6:12
2:0
13:7:12
2:0
11:8:12
2:0
13:9:12
2:0
5:2:12
1:-1
7:0:12
1:-1
14:7:12
2:0
15:4:12
2:0
15:3:12
2:-1
15:10:12
2:0
15:5:12
2:0
15:4:12
2:0
15:9:12
2:0
0:3:12
-1:0
8:5:11
2:0
13:6:12
2:0
14:6:12
2:0
15:8:12
2:0
15:5:12
2:0
15:4:12
2:0
14:10:12
2:0
15:3:12
2:0
5:3:12
1:-1
11:3:12
2:0
15:6:12
2:0
15:4:12
2:0
15:8:12
2:0
14:7:12
2:0
14:10:12
2:0
12:1:12
2:-1
1:8:12
-1:0
7:1:11
1:-1
14:10:11
2:0
15:6:12
2:0
15:2:12
2:-1
15:8:12
2:0
15:8:12
2:0
15:8:12
2:0
1:5:12
-1:0
11:4:11
2:0
15:7:12
2:0
15:3:12
2:0
15:10:12
2:0
15:6:12
2:0
15:5:12
2:0
15:7:12
2:0
7:5:12
1:0
10:3:12
2:0
15:7:12
2:0
15:8:12
2:0
15:5:12
2:0
15:8:12
2:0
15:2:12
2:-1
14:9:12
2:0
8:0:12
2:-1
14:3:12
2:0
15:2:12
2:-1
15:10:12
2:0
15:5:12
2:0
15:11:12
2:0
0:4:12
-1:0
4:4:11
1:0
10:5:12
2:0
15:6:12
2:0
14:8:12
2:0
0:3:12
-1:-1
12:7:11
2:-1
13:2:11
2:-1
14:5:11
2:0
2:2:12
0:-1
6:1:12
1:-1
15:9:12
2:0
15:8:12
2:0
15:1:12
2:-1
15:4:12
2:0
15:7:12
2:0
15:6:12
2:0
4:5:12
1:0
10:1:12
2:-1
15:7:12
2:0
15:11:12
2:1
15:2:12
2:-1
15:7:12
2:0
14:9:12
2:0
14:4:12
2:0
14:2:12
2:-1
2:6:12
0:0
7:1:12
1:-1
15:9:12
2:0
14:6:12
2:0
14:6:12
2:0
12:5:12
2:0
13:9:12
2:0
14:2:12
2:-1
14:8:12
2:0
1:3:12
-1:0
10:0:11
2:-1
12:2:11
2:-1
15:6:11
2:0
15:5:12
2:0
15:3:12
2:-1
15:9:12
2:0
14:6:12
2:0
14:4:12
2:0
14:8:12
2:0
6:2:12
1:-1
10:1:12
2:-1
15:6:12
2:0
15:6:12
2:0
15:7:12
2:0
13:6:12
2:0
13:8:12
2:0
15:3:12
2:-1
2:3:12
0:0
5:1:12
1:-1
14:11:12
2:1
14:1:12
2:-1
15:7:12
2:0
15:1:12
2:-1
15:10:12
2:0
14:5:12
2:0
6:4:12
1:0
8:1:12
2:-1
15:8:12
2:0
15:2:12
2:-1
14:6:12
2:0
15:3:12
2:0
14:2:12
2:-1
14:11:12
2:1
1:0:12
-1:-1
9:0:11
2:-1
12:2:11
2:-1
15:8:11
2:0
14:3:12
2:-1
15:8:12
2:0
15:1:12
2:-1
14:10:12
2:0
15:2:12
2:-1
0:4:12
-1:-1
13:1:11
2:-1
15:2:11
2:-1
15:7:11
2:0
13:12:12
2:0
13:5:12
2:0
0:9:12
-1:0
4:4:11
1:0
8:4:12
2:0
11:4:12
2:0
14:10:12
2:0
14:2:12
2:-1
14:7:12
2:0
15:11:12
2:1
15:4:12
2:0
10:2:12
2:-1
15:4:12
2:0
15:9:12
2:0
15:7:12
2:0
14:1:12
2:-1
15:5:12
2:0
15:9:12
2:0
2:4:12
0:-1
5:3:12
1:0
11:7:12
2:0
15:7:12
2:0
15:4:12
2:0
14:6:12
2:0
15:7:12
2:0
14:3:12
2:-1
15:8:12
2:0
15:3:12
2:-1
0:3:12
-1:-1
10:3:11
2:-1
13:5:11
2:0
14:7:12
2:0
14:11:12
2:0
14:1:12
2:-1
14:5:12
2:0
15:8:12
2:0
0:4:12
-1:0
9:6:11
2:0
12:3:12
2:-1
15:2:12
2:-1
14:7:12
2:0
15:12:12
2:1
15:3:12
2:0
14:6:12
2:0
14:4:12
2:0
2:6:12
0:0
5:2:12
1:-1
10:6:12
2:0
15:7:12
2:0
14:5:12
2:0
15:6:12
2:0
14:6:12
2:0
15:7:12
2:0
15:2:12
2:-1
3:7:12
0:0
9:2:12
2:-1
14:8:12
2:0
14:5:12
2:0
14:5:12
2:0
15:6:12
2:0
15:2:12
2:-1
0:5:12
-1:-1
13:9:11
2:-1
1:1:11
-1:-1
7:3:10
1:0
10:3:11
2:0
15:8:12
2:0
0:4:12
-1:-1
2:9:11
0:-1
12:3:11
2:-1
15:4:11
2:0
14:1:12
2:-1
15:4:12
2:0
8:7:12
2:0
15:7:12
2:0
15:6:12
2:0
15:5:12
2:0
15:9:12
2:0
15:1:12
2:-1
15:9:12
2:0
0:5:12
-1:0
3:1:11
0:-1
13:10:11
2:1
15:6:12
2:0
15:2:12
2:-1
15:7:12
2:0
15:4:12
2:0
15:5:12
2:0
2:12:12
0:0
4:1:12
1:-1
11:7:12
2:0
14:11:12
2:0
15:2:12
2:-1
15:8:12
2:0
15:10:12
2:0
15:2:12
2:-1
15:6:12
2:0
3:1:12
0:-1
10:5:12
2:0
14:9:12
2:0
13:4:12
2:0
15:5:12
2:0
14:2:12
2:-1
15:9:12
2:0
15:5:12
2:0
5:4:12
1:0
6:1:12
1:-1
15:10:12
2:0
15:5:12
2:0
14:9:12
2:0
14:6:12
2:0
15:1:12
2:-1
15:7:12
2:0
7:3:12
1:-1
12:3:12
2:0
14:5:12
2:0
15:5:12
2:0
14:6:12
2:0
15:2:12
2:-1
15:10:12
2:0
15:1:12
2:-1
14:6:12
2:0
1:5:12
-1:0
11:0:11
2:-1
14:2:11
2:-1
14:5:11
2:0
15:4:12
2:0
15:10:12
2:0
15:7:12
2:0
14:1:12
2:-1
14:7:12
2:0
6:5:12
1:0
0:4:12
-1:-1
14:9:11
2:-1
14:2:11
2:-1
15:11:11
2:1
15:1:12
2:-1
13:12:12
2:0
0:9:12
-1:0
10:4:11
2:0
11:1:12
2:-1
14:10:12
2:0
15:2:12
2:-1
14:11:12
2:1
15:2:12
2:-1
0:7:12
-1:0
2:5:11
0:-1
6:1:11
1:-1
15:10:11
2:1
15:2:12
2:-1
14:5:12
2:0
15:3:12
2:0
15:3:12
2:-1
14:9:12
2:0
15:3:12
2:0
2:2:12
0:-1
15:9:12
2:0
15:7:12
2:0
15:7:12
2:0
15:4:12
2:0
15:4:12
2:0
15:7:12
2:0
0:7:12
-1:0
8:3:11
2:-1
14:7:11
2:0
15:1:12
2:-1
15:7:12
2:0
15:4:12
2:0
14:14:12
2:1
15:2:12
2:-1
1:7:12
-1:0
5:2:11
1:-1
14:11:11
2:1
15:3:12
2:0
15:7:12
2:0
14:2:12
2:-1
15:7:12
2:0
15:7:12
2:0
7:1:12
1:-1
10:1:12
2:-1
15:6:12
2:0
15:10:12
2:0
14:1:12
2:-1
15:5:12
2:0
14:11:12
2:0
15:4:12
2:0
3:5:12
0:0
8:3:12
2:-1
13:4:12
2:0
0:9:12
-1:0
11:6:11
2:-1
14:4:11
2:0
15:2:12
2:-1
15:9:12
2:0
15:7:12
2:0
8:3:12
2:-1
0:1:12
-1:-1
14:8:11
2:-1
13:5:11
2:0
13:6:12
2:0
15:10:12
2:0
15:2:12
2:-1
4:5:12
1:0
11:3:12
2:0
14:3:12
2:0
14:7:12
2:0
15:1:12
2:-1
15:5:12
2:0
15:10:12
2:0
15:3:12
2:-1
15:8:12
2:0
6:3:12
1:0
13:3:12
2:0
15:5:12
2:0
0:5:12
-1:0
13:6:11
2:-1
14:2:11
2:-1
14:7:11
2:0
15:3:12
2:0
0:11:12
-1:0
5:1:11
1:-1
14:11:11
2:1
15:3:12
2:0
15:6:12
2:0
15:7:12
2:0
15:8:12
2:0
14:6:12
2:0
6:6:12
1:0
15:5:12
2:0
15:3:12
2:-1
14:10:12
2:0
14:9:12
2:0
15:2:12
2:-1
15:5:12
2:0
1:3:12
-1:-1
6:0:11
1:-1
15:3:11
2:0
14:1:12
2:-1
15:8:12
2:0
0:2:12
-1:-1
13:10:11
2:-1
15:1:11
2:-1
1:7:11
-1:0
5:0:10
1:-1
7:1:10
1:-1
15:8:10
2:0
15:6:11
2:0
15:6:12
2:0
15:6:12
2:0
15:4:12
2:0
14:10:12
2:0
3:1:12
0:-1
5:1:12
1:-1
9:4:12
2:0
12:10:12
2:0
14:4:12
2:0
14:11:12
2:0
15:7:12
2:0
15:4:12
2:0
0:5:12
-1:0
0:9:11
-1:-1
5:2:10
1:-1
14:8:10
2:0
15:3:11
2:0
15:6:12
2:0
0:3:12
-1:-1
13:10:11
2:-1
15:2:11
2:-1
15:5:11
2:0
6:1:12
1:-1
15:8:12
2:0
15:7:12
2:0
15:3:12
2:0
15:3:12
2:-1
15:7:12
2:0
15:6:12
2:0
15:4:12
2:0
3:5:12
0:0
11:7:12
2:0
15:9:12
2:0
15:1:12
2:-1
14:2:12
2:-1
15:6:12
2:0
15:3:12
2:-1
0:8:12
-1:0
5:1:11
1:-1
12:8:11
2:0
15:5:12
2:0
15:6:12
2:0
15:6:12
2:0
15:4:12
2:-1
15:10:12
2:0
0:6:12
-1:0
4:2:11
1:-1
6:2:11
1:-1
13:12:11
2:1
14:2:12
2:-1
15:5:12
2:0
15:5:12
2:0
15:7:12
2:0
2:7:12
0:0
9:3:12
2:-1
14:5:12
2:0
0:6:12
-1:0
13:5:11
2:-1
14:3:11
2:0
15:3:12
2:0
15:8:12
2:0
1:5:12
-1:0
7:5:11
1:0
14:6:12
2:0
15:5:12
2:0
15:9:12
2:0
15:1:12
2:-1
15:6:12
2:0
15:7:12
2:0
0:5:12
-1:0
3:2:11
0:-1
15:11:11
2:1
14:2:12
2:-1
15:5:12
2:0
15:6:12
2:0
15:6:12
2:0
15:7:12
2:0
0:6:12
-1:0
2:8:11
0:-1
4:2:11
1:-1
10:6:11
2:0
14:7:12
2:0
14:10:12
2:0
15:3:12
2:0
14:6:12
2:0
15:1:12
2:-1
15:8:12
2:0
6:4:12
1:0
10:1:12
2:-1
14:6:12
2:0
15:8:12
2:0
15:3:12
2:-1
15:8:12
2:0
15:5:12
2:0
15:9:12
2:0
3:3:12
0:0
11:6:12
2:0
14:3:12
2:0
14:4:12
2:0
15:6:12
2:0
15:3:12
2:-1
15:2:12
2:-1
14:7:12
2:0
4:5:12
1:0
8:3:12
2:0
15:10:12
2:0
15:5:12
2:0
15:6:12
2:0
15:5:12
2:0
15:9:12
2:0
15:8:12
2:0
15:5:12
2:0
3:2:12
0:-1
9:8:12
2:0
12:5:12
2:0
15:5:12
2:0
15:7:12
2:0
0:5:12
-1:0
0:10:11
-1:-1
14:0:10
2:-1
14:1:10
2:-1
6:1:10
1:-1
13:6:10
2:0
14:5:11
2:0
15:2:12
2:-1
14:3:12
2:0
14:9:12
2:0
14:3:12
2:0
14:3:12
2:0
0:10:12
-1:0
1:2:11
-1:-1
14:10:10
2:0
0:1:11
-1:-1
14:8:10
2:-1
14:3:10
2:-1
15:10:10
2:0
15:3:11
2:0
15:6:12
2:0
14:7:12
2:0
10:3:12
2:-1
15:3:12
2:0
15:6:12
2:0
15:7:12
2:0
15:5:12
2:0
15:9:12
2:0
14:4:12
2:0
1:7:12
-1:0
0:5:11
-1:-1
7:3:10
1:-1
12:6:10
2:0
12:10:11
2:0
14:3:12
2:0
15:3:12
2:0
15:10:12
2:0
15:5:12
2:0
0:7:12
-1:0
2:1:11
0:-1
8:5:11
2:0
12:4:12
2:0
15:6:12
2:0
15:6:12
2:0
15:5:12
2:0
15:8:12
2:0
15:7:12
2:0
15:7:12
2:0
3:6:12
0:0
5:1:12
1:-1
14:7:12
2:0
15:5:12
2:0
15:4:12
2:0
15:13:12
2:1
15:2:12
2:-1
15:9:12
2:0
15:5:12
2:0
0:4:12
-1:0
6:0:11
1:-1
13:5:11
2:0
15:11:12
2:1
15:2:12
2:-1
14:4:12
2:-1
15:10:12
2:0
0:5:12
-1:0
13:7:11
2:-1
1:2:11
-1:-1
9:6:10
2:0
11:3:11
2:-1
12:10:11
2:0
15:6:12
2:0
0:4:12
-1:-1
14:6:11
2:-1
14:5:11
2:0
15:7:12
2:0
4:2:12
1:-1
12:3:12
2:0
15:3:12
2:-1
14:8:12
2:0
15:6:12
2:0
15:5:12
2:0
15:9:12
2:0
13:9:12
2:0
4:2:12
1:-1
9:5:12
2:0
13:9:12
2:0
14:6:12
2:0
15:6:12
2:0
15:2:12
2:-1
14:10:12
2:0
14:4:12
2:-1
14:6:12
2:0
10:0:12
2:-1
15:7:12
2:0
15:9:12
2:0
15:4:12
2:0
15:4:12
2:0
14:7:12
2:0
15:6:12
2:0
15:7:12
2:0
5:4:12
1:-1
1:6:12
-1:0
0:8:11
-1:-1
2:2:10
0:-1
1:2:10
-1:-1
13:3:9
2:-1
14:3:9
2:0
15:5:10
2:0
15:2:11
2:-1
2:5:11
0:0
8:2:11
2:-1
11:3:11
2:-1
15:11:11
2:1
15:5:12
2:0
15:8:12
2:0
15:6:12
2:0
14:7:12
2:0
0:3:12
-1:-1
6:2:11
1:-1
12:4:11
2:0
14:7:12
2:0
15:4:12
2:0
15:2:12
2:-1
15:10:12
2:0
15:3:12
2:0
15:4:12
2:0
2:3:12
0:-1
7:4:12
1:0
15:10:12
2:0
15:5:12
2:0
15:4:12
2:0
15:9:12
2:0
15:6:12
2:0
0:8:12
-1:0
3:1:11
0:-1
13:10:11
2:1
0:5:12
-1:0
14:6:11
2:-1
14:5:11
2:0
15:4:12
2:0
15:5:12
2:0
15:4:12
2:0
14:6:12
2:0
8:1:12
2:-1
15:5:12
2:0
15:8:12
2:0
15:7:12
2:0
14:7:12
2:0
14:4:12
2:0
15:5:12
2:0
15:5:12
2:0
7:1:12
1:-1
10:1:12
2:-1
15:9:12
2:0
14:2:12
2:-1
0:4:12
-1:0
11:11:11
2:-1
15:3:11
2:0
15:2:12
2:-1
2:7:12
0:0
8:5:12
2:0
15:7:12
2:0
2:7:12
0:0
3:7:12
0:-1
13:2:12
2:-1
14:5:12
2:0
15:7:12
2:0
14:8:12
2:0
3:5:12
0:-1
9:8:12
2:0
10:6:12
2:0
10:4:12
2:0
14:11:12
2:0
14:8:12
2:0
15:1:12
2:-1
15:5:12
2:0
15:7:12
2:0
15:6:12
2:0
3:0:12
0:-1
9:5:12
2:0
15:8:12
2:0
15:6:12
2:0
15:8:12
2:0
15:2:12
2:-1
15:12:12
2:1
0:6:12
-1:0
1:5:11
-1:-1
5:1:10
1:-1
14:7:10
2:0
14:4:11
2:-1
15:6:11
2:0
15:7:12
2:0
15:6:12
2:0
14:4:12
2:0
15:6:12
2:0
15:6:12
2:0
5:1:12
1:-1
11:3:12
2:0
15:7:12
2:0
15:5:12
2:0
15:8:12
2:0
15:3:12
2:0
13:9:12
2:0
13:9:12
2:0
15:6:12
2:0
6:2:12
1:-1
13:6:12
2:0
15:9:12
2:0
15:8:12
2:0
15:5:12
2:0
15:6:12
2:0
14:7:12
2:0
2:3:12
0:0
9:1:12
2:-1
11:2:12
2:-1
15:10:12
2:0
15:6:12
2:0
0:6:12
-1:0
14:5:11
2:-1
14:4:11
2:0
0:8:12
-1:0
4:2:11
1:-1
14:10:11
2:0
15:4:12
2:0
14:7:12
2:0
15:6:12
2:0
15:0:12
2:-1
15:3:12
2:-1
15:10:12
2:0
2:4:12
0:0
7:4:12
1:0
15:10:12
2:0
0:4:12
-1:-1
14:8:11
2:-1
15:4:11
2:0
15:8:12
2:0
15:5:12
2:0
2:5:12
0:0
9:5:12
2:0
15:7:12
2:0
15:6:12
2:0
15:6:12
2:0
0:8:12
-1:0
14:5:11
2:-1
14:5:11
2:0
2:6:12
0:0
8:5:12
2:0
15:8:12
2:0
14:11:12
2:0
14:4:12
2:0
15:6:12
2:0
15:7:12
2:0
14:10:12
2:0
4:5:12
1:0
12:2:12
2:-1
15:6:12
2:0
15:1:12
2:-1
15:10:12
2:0
15:5:12
2:0
15:6:12
2:0
15:2:12
2:-1
0:7:12
-1:0
3:1:11
0:-1
13:10:11
2:1
15:5:12
2:0
15:3:12
2:0
15:9:12
2:0
0:3:12
-1:-1
14:9:11
2:-1
14:1:11
2:-1
0:9:11
-1:0
5:4:10
1:0
11:7:11
2:0
15:6:12
2:0
15:7:12
2:0
15:6:12
2:0
15:5:12
2:0
14:10:12
2:0
15:4:12
2:0
3:7:12
0:0
11:7:12
2:0
15:8:12
2:0
15:4:12
2:0
15:7:12
2:0
15:8:12
2:0
15:6:12
2:0
14:8:12
2:0
1:7:12
-1:0
6:2:11
1:-1
10:4:11
2:0
15:9:12
2:0
15:4:12
2:0
15:8:12
2:0
15:6:12
2:0
15:7:12
2:0
0:8:12
-1:0
5:3:11
1:0
11:6:12
2:0
15:5:12
2:0
15:9:12
2:0
0:4:12
-1:0
14:7:11
2:-1
14:5:11
2:0
15:8:12
2:0
3:0:12
0:-1
8:4:12
2:0
15:7:12
2:0
15:6:12
2:0
15:5:12
2:0
15:8:12
2:0
15:5:12
2:0
15:7:12
2:0
15:2:12
2:-1
2:7:12
0:0
8:5:12
2:0
15:7:12
2:0
15:9:12
2:0
15:4:12
2:0
15:7:12
2:0
15:6:12
2:0
15:5:12
2:0
15:8:12
2:0
3:1:12
0:-1
8:4:12
2:0
13:12:12
2:0
13:7:12
2:0
0:7:12
-1:0
13:7:11
2:-1
11:3:11
2:-1
13:10:11
2:1
0:3:12
-1:0
2:1:11
0:-1
14:11:11
2:1
15:3:12
2:0
15:9:12
2:0
15:5:12
2:0
15:6:12
2:0
15:8:12
2:0
15:6:12
2:0
2:3:12
0:-1
8:5:12
2:0
14:10:12
2:0
14:5:12
2:0
12:7:12
2:0
13:9:12
2:0
13:4:12
2:0
0:4:12
-1:-1
0:9:11
-1:-1
3:1:10
0:-1
13:10:10
2:1
15:3:12
2:0
15:10:12
2:0
15:5:12
2:0
15:8:12
2:0
15:8:12
2:0
0:5:12
-1:0
4:2:11
1:-1
13:12:11
2:1
13:3:12
2:0
15:7:12
2:0
15:10:12
2:0
14:4:12
2:0
14:7:12
2:0
0:5:12
-1:0
4:3:11
1:0
11:7:12
2:0
15:8:12
2:0
15:6:12
2:0
15:9:12
2:0
14:8:12
2:0
14:9:12
2:0
15:5:12
2:0
4:1:12
1:-1
12:7:12
2:0
15:8:12
2:0
14:7:12
2:0
14:7:12
2:0
15:9:12
2:0
15:6:12
2:0
0:9:12
-1:0
3:1:11
0:-1
12:9:11
2:0
15:7:12
2:0
15:8:12
2:0
15:6:12
2:0
15:10:12
2:0
15:8:12
2:0
0:3:12
-1:0
6:3:11
1:0
14:10:12
2:0
15:5:12
2:0
15:3:12
2:0
15:4:12
2:0
15:7:12
2:0
15:9:12
2:0
15:3:12
2:0
9:0:12
2:-1
13:4:12
2:0
15:4:12
2:0
15:8:12
2:0
14:1:12
2:-1
14:7:12
2:0
15:3:12
2:0
14:4:12
2:0
3:3:12
0:0
8:3:12
2:0
14:9:12
2:0
15:1:12
2:-1
14:11:12
2:0
14:3:12
2:0
15:1:12
2:-1
15:11:12
2:1
0:4:12
-1:0
9:6:11
2:0
11:2:12
2:-1
15:6:12
2:0
15:7:12
2:0
15:2:12
2:-1
15:8:12
2:0
14:7:12
2:0
15:5:12
2:0
2:5:12
0:0
11:5:12
2:0
15:5:12
2:0
14:8:12
2:0
15:8:12
2:0
15:10:12
2:0
14:1:12
2:-1
1:8:12
-1:0
10:2:11
2:-1
15:2:11
2:-1
15:2:11
2:-1
14:6:11
2:0
15:6:12
2:0
15:2:12
2:-1
1:9:12
-1:0
10:5:11
2:0
15:2:12
2:-1
15:4:12
2:0
15:10:12
2:0
15:3:12
2:-1
15:6:12
2:0
14:4:12
2:0
7:2:12
1:-1
15:5:12
2:0
15:3:12
2:-1
15:8:12
2:0
14:7:12
2:0
15:2:12
2:-1
14:11:12
2:0
14:2:12
2:-1
7:2:12
1:-1
12:1:12
2:-1
14:9:12
2:0
14:4:12
2:0
15:2:12
2:-1
15:9:12
2:0
15:2:12
2:-1
14:4:12
2:0
2:6:12
0:0
9:3:12
2:0
14:6:12
2:0
14:9:12
2:0
15:6:12
2:0
14:3:12
2:0
15:4:12
2:0
15:5:12
2:0
0:6:12
-1:0
3:1:11
0:-1
14:9:11
2:0
14:1:12
2:-1
14:8:12
2:0
15:4:12
2:0
15:2:12
2:-1
14:5:12
2:0
14:10:12
2:0
6:1:12
1:-1
10:3:12
2:-1
15:7:12
2:0
15:9:12
2:0
15:3:12
2:-1
14:3:12
2:-1
15:9:12
2:0
15:2:12
2:-1
3:8:12
0:0
12:1:12
2:-1
15:7:12
2:0
15:5:12
2:0
15:10:12
2:0
14:0:12
2:-1
15:6:12
2:0
14:4:12
2:0
6:5:12
1:0
14:4:12
2:0
14:2:12
2:-1
14:10:12
2:0
15:8:12
2:0
15:2:12
2:-1
14:8:12
2:0
1:4:12
-1:0
10:0:11
2:-1
14:7:11
2:0
15:9:12
2:0
14:3:12
2:0
14:3:12
2:0
15:7:12
2:0
15:3:12
2:-1
10:3:12
2:-1
15:3:12
2:0
15:7:12
2:0
14:4:12
2:0
15:6:12
2:0
15:7:12
2:0
14:2:12
2:-1
9:8:12
2:0
1:3:12
-1:0
6:3:11
1:0
13:10:12
2:0
11:9:12
2:0
13:6:12
2:0
15:8:12
2:0
15:4:12
2:0
15:8:12
2:0
15:6:12
2:0
6:3:12
1:-1
12:4:12
2:0
15:10:12
2:0
15:3:12
2:-1
15:9:12
2:0
15:6:12
2:0
15:10:12
2:0
15:5:12
2:0
4:1:12
1:-1
9:4:12
2:0
15:10:12
2:0
13:4:12
2:-1
13:9:12
2:0
15:6:12
2:0
15:7:12
2:0
0:5:12
-1:0
14:7:11
2:-1
5:0:11
1:-1
10:4:11
2:0
15:8:12
2:0
15:6:12
2:0
12:13:12
2:0
12:7:12
2:0
15:8:12
2:0
15:4:12
2:0
0:1:12
-1:-1
6:3:11
1:0
15:9:12
2:0
15:5:12
2:0
15:8:12
2:0
15:7:12
2:0
14:5:12
2:0
14:5:12
2:0
12:9:12
2:0
0:8:12
-1:0
4:4:11
1:0
11:7:12
2:0
15:6:12
2:0
13:5:12
2:0
11:7:12
2:0
13:7:12
2:0
13:4:12
2:0
15:9:12
2:0
15:4:12
2:0
6:3:12
1:-1
12:6:12
2:0
15:6:12
2:0
14:6:12
2:0
15:6:12
2:0
15:7:12
2:0
13:9:12
2:0
12:7:12
2:0
13:3:12
2:0
6:1:12
1:-1
12:5:12
2:0
15:6:12
2:0
15:4:12
2:0
15:11:12
2:1
15:5:12
2:0
15:9:12
2:0
0:3:12
-1:0
4:3:11
1:0
12:9:12
2:0
14:6:12
2:0
15:8:12
2:0
15:2:12
2:-1
14:13:12
2:1
15:2:12
2:-1
15:8:12
2:0
0:4:12
-1:0
6:3:11
1:0
13:7:12
2:0
15:6:12
2:0
0:3:12
-1:-1
0:7:11
-1:-1
14:2:10
2:-1
14:4:10
2:0
12:12:11
2:0
5:4:12
1:-1
10:4:12
2:0
15:9:12
2:0
14:4:12
2:0
15:5:12
2:0
14:3:12
2:-1
15:6:12
2:0
15:4:12
2:0
0:1:12
-1:-1
3:1:11
0:-1
15:11:11
2:1
15:2:12
2:-1
15:7:12
2:0
15:7:12
2:0
15:5:12
2:0
15:7:12
2:0
0:7:12
-1:0
7:8:11
1:0
14:8:12
2:0
14:4:12
2:0
12:11:12
2:0
12:5:12
2:0
15:6:12
2:0
15:10:12
2:0
3:3:12
0:-1
7:1:12
1:-1
15:10:12
2:0
15:4:12
2:0
15:9:12
2:0
0:6:12
-1:0
14:6:11
2:-1
14:1:11
2:-1
1:10:11
-1:1
8:1:11
2:-1
13:4:11
2:0
15:9:12
2:0
15:4:12
2:0
15:6:12
2:0
15:9:12
2:0
15:6:12
2:0
0:6:12
-1:0
2:1:11
0:-1
14:12:11
2:1
15:2:12
2:-1
15:12:12
2:1
15:5:12
2:0
15:9:12
2:0
15:6:12
2:0
3:3:12
0:0
8:5:12
2:0
13:8:12
2:0
15:6:12
2:0
15:6:12
2:0
15:4:12
2:0
15:5:12
2:0
15:4:12
2:0
15:9:12
2:0
7:1:12
1:-1
12:3:12
2:0
14:6:12
2:0
15:5:12
2:0
15:7:12
2:0
15:7:12
2:0
15:4:12
2:0
15:10:12
2:0
2:3:12
0:-1
9:6:12
2:0
15:9:12
2:0
15:4:12
2:-1
14:9:12
2:0
15:4:12
2:0
15:7:12
2:0
15:6:12
2:0
5:6:12
1:0
10:2:12
2:-1
15:9:12
2:0
15:7:12
2:0
15:8:12
2:0
15:4:12
2:-1
13:9:12
2:0
12:7:12
2:0
6:1:12
1:-1
11:3:12
2:0
15:10:12
2:0
14:6:12
2:0
14:7:12
2:0
14:6:12
2:0
13:5:12
2:0
14:9:12
2:0
0:5:12
-1:0
6:4:11
1:0
14:7:12
2:0
15:6:12
2:0
15:5:12
2:0
15:9:12
2:0
14:7:12
2:0
14:6:12
2:0
15:4:12
2:0
4:1:12
1:-1
7:2:12
1:-1
15:10:12
2:0
15:4:12
2:0
15:5:12
2:0
15:3:12
2:0
14:6:12
2:0
14:6:12
2:0
2:7:12
0:0
3:1:12
0:-1
6:3:12
1:-1
15:12:12
2:1
15:3:12
2:0
15:9:12
2:0
15:5:12
2:0
1:8:12
-1:0
13:6:11
2:-1
4:1:11
1:-1
8:2:11
2:-1
15:7:11
2:0
15:5:12
2:0
15:6:12
2:0
15:7:12
2:0
15:6:12
2:0
15:7:12
2:0
0:1:12
-1:-1
10:6:11
2:0
15:5:12
2:0
15:7:12
2:0
15:6:12
2:0
15:1:12
2:-1
15:12:12
2:1
15:2:12
2:-1
15:10:12
2:0
7:2:12
1:-1
10:1:12
2:-1
15:10:12
2:0
15:4:12
2:-1
15:6:12
2:0
13:5:12
2:0
14:6:12
2:0
1:5:12
-1:0
5:2:11
1:-1
15:11:11
2:1
15:4:12
2:0
15:3:12
2:0
15:5:12
2:0
15:4:12
2:0
15:6:12
2:0
3:1:12
0:-1
0:1:12
-1:-1
13:10:11
2:-1
14:6:11
2:0
14:7:12
2:0
14:5:12
2:0
13:9:12
2:0
12:7:12
2:0
0:5:12
-1:0
0:6:11
-1:-1
3:1:10
0:-1
7:4:10
1:0
15:9:11
2:0
15:5:12
2:0
15:6:12
2:0
14:6:12
2:0
14:1:12
2:-1
15:5:12
2:0
1:4:12
-1:0
10:2:11
2:-1
14:2:11
2:-1
14:7:11
2:0
15:3:12
2:0
15:1:12
2:-1
15:13:12
2:1
14:3:12
2:0
15:4:12
2:0
0:7:12
-1:0
8:0:11
2:-1
12:3:11
2:0
12:9:12
2:0
13:5:12
2:0
15:5:12
2:0
15:7:12
2:0
15:5:12
2:0
15:3:12
2:0
3:1:12
0:-1
4:1:12
1:-1
14:10:12
2:0
15:4:12
2:0
15:4:12
2:0
15:6:12
2:0
14:6:12
2:0
14:2:12
2:-1
15:7:12
2:0
0:7:12
-1:0
2:1:11
0:-1
10:8:11
2:0
15:5:12
2:0
15:9:12
2:0
14:6:12
2:0
14:6:12
2:0
14:5:12
2:0
15:6:12
2:0
3:1:12
0:-1
15:6:12
2:0
15:1:12
2:-1
14:9:12
2:0
13:8:12
2:0
15:5:12
2:0
14:1:12
2:-1
15:3:12
2:0
6:7:12
1:0
10:1:12
2:-1
15:7:12
2:0
0:6:12
-1:0
14:5:11
2:-1
13:3:11
2:0
15:8:12
2:0
15:4:12
2:0
15:5:12
2:0
3:3:12
0:0
11:9:12
2:0
13:8:12
2:0
15:7:12
2:0
15:5:12
2:0
13:9:12
2:0
12:7:12
2:0
13:6:12
2:0
0:6:12
-1:0
3:4:11
0:0
10:7:11
2:0
14:7:12
2:0
15:4:12
2:0
15:6:12
2:0
15:6:12
2:0
15:5:12
2:0
15:7:12
2:0
1:4:12
-1:0
8:0:11
2:-1
10:1:11
2:-1
15:9:11
2:0
15:1:12
2:-1
14:8:12
2:0
14:6:12
2:0
15:4:12
2:0
14:4:12
2:0
0:2:12
-1:-1
6:3:11
1:0
12:6:12
2:0
13:8:12
2:0
13:4:12
2:0
12:3:12
2:-1
12:12:12
2:0
14:4:12
2:0
14:8:12
2:0
1:4:12
-1:0
6:1:11
1:-1
11:5:11
2:0
15:10:12
2:0
15:5:12
2:0
14:0:12
2:-1
14:6:12
2:0
15:6:12
2:0
15:3:12
2:0
5:1:12
1:-1
15:8:12
2:0
0:1:12
-1:-1
11:9:11
2:-1
15:4:11
2:0
15:2:12
2:-1
15:12:12
2:1
8:0:12
2:-1
15:5:12
2:0
15:1:12
2:-1
15:4:12
2:0
15:10:12
2:0
15:3:12
2:0
15:8:12
2:0
0:3:12
-1:0
8:2:11
2:-1
13:4:11
2:-1
1:4:11
-1:-1
14:8:10
2:-1
15:1:10
2:-1
15:8:10
2:0
14:9:11
2:0
0:4:12
-1:0
6:3:11
1:0
15:10:12
2:0
12:9:12
2:0
12:6:12
2:0
14:5:12
2:0
15:6:12
2:0
15:2:12
2:-1
14:7:12
2:0
2:5:12
0:0
5:2:12
1:-1
15:12:12
2:1
14:1:12
2:-1
15:6:12
2:0
15:9:12
2:0
15:1:12
2:-1
14:10:12
2:0
15:3:12
2:0
7:3:12
1:0
8:1:12
2:-1
15:7:12
2:0
15:10:12
2:0
14:1:12
2:-1
15:8:12
2:0
15:2:12
2:-1
15:7:12
2:0
0:5:12
-1:0
9:6:11
2:0
11:3:12
2:-1
14:7:12
2:0
15:1:12
2:-1
15:8:12
2:0
14:4:12
2:0
14:10:12
2:0
0:6:12
-1:0
2:3:11
0:-1
6:3:11
1:0
15:9:12
2:0
15:2:12
2:-1
14:7:12
2:0
14:6:12
2:0
15:5:12
2:0
15:6:12
2:0
5:7:12
1:0
7:1:12
1:-1
14:8:12
2:0
15:7:12
2:0
15:4:12
2:-1
15:7:12
2:0
15:8:12
2:0
14:5:12
2:0
4:7:12
1:0
12:6:12
2:0
14:4:12
2:0
15:7:12
2:0
15:4:12
2:0
15:12:12
2:1
14:1:12
2:-1
15:5:12
2:0
3:7:12
0:0
6:3:12
1:-1
14:11:12
2:1
0:1:12
-1:-1
14:2:11
2:-1
14:6:11
2:0
15:6:12
2:0
15:7:12
2:0
2:9:12
0:0
5:3:12
1:0
12:7:12
2:0
0:7:12
-1:0
13:8:11
2:-1
15:7:11
2:0
15:5:12
2:0
15:9:12
2:0
5:3:12
1:0
8:2:12
2:-1
15:8:12
2:0
15:6:12
2:0
15:5:12
2:0
14:6:12
2:0
15:11:12
2:0
15:2:12
2:-1
15:6:12
2:0
4:1:12
1:-1
13:6:12
2:0
14:1:12
2:-1
15:8:12
2:0
15:1:12
2:-1
15:8:12
2:0
15:4:12
2:0
14:6:12
2:0
14:6:12
2:0
6:5:12
1:0
10:2:12
2:-1
14:3:12
2:0
15:7:12
2:0
15:4:12
2:0
14:6:12
2:0
15:5:12
2:0
15:6:12
2:0
15:7:12
2:0
10:3:12
2:-1
12:1:12
2:-1
15:5:12
2:0
15:5:12
2:0
15:7:12
2:0
15:10:12
2:0
15:2:12
2:-1
6:4:12
1:-1
10:2:12
2:-1
14:5:12
2:0
14:7:12
2:0
15:3:12
2:0
14:7:12
2:0
15:1:12
2:-1
1:8:12
-1:0
12:3:11
2:-1
14:1:11
2:-1
14:11:11
2:1
15:4:12
2:0
15:5:12
2:0
15:2:12
2:-1
15:4:12
2:0
15:6:12
2:0
8:3:12
2:-1
11:1:12
2:-1
15:4:12
2:0
15:7:12
2:0
14:6:12
2:0
14:9:12
2:0
15:1:12
2:-1
15:5:12
2:0
0:9:12
-1:0
5:3:11
1:0
9:5:12
2:0
13:10:12
2:0
2:6:12
0:0
0:8:12
-1:-1
13:3:11
2:-1
15:7:11
2:0
15:2:12
2:-1
4:3:12
1:0
9:4:12
2:0
15:7:12
2:0
15:4:12
2:-1
15:10:12
2:0
15:1:12
2:-1
15:11:12
2:0
15:3:12
2:-1
8:4:12
2:0
14:2:12
2:-1
15:10:12
2:0
15:4:12
2:0
0:5:12
-1:0
12:7:11
2:-1
15:6:11
2:0
15:5:12
2:0
2:0:12
0:-1
4:1:12
1:-1
14:10:12
2:0
15:7:12
2:0
15:5:12
2:0
15:8:12
2:0
15:5:12
2:0
13:10:12
2:0
1:1:12
-1:-1
5:3:11
1:0
12:6:12
2:0
15:5:12
2:0
15:7:12
2:0
15:6:12
2:0
15:6:12
2:0
15:2:12
2:-1
14:2:12
2:-1
2:6:12
0:0
9:6:12
2:0
15:8:12
2:0
14:3:12
2:0
15:9:12
2:0
15:2:12
2:-1
15:11:12
2:0
15:3:12
2:0
0:4:12
-1:0
12:4:11
2:-1
14:2:11
2:-1
15:3:11
2:0
14:7:12
2:0
15:1:12
2:-1
15:6:12
2:0
15:5:12
2:0
4:1:12
1:-1
8:2:12
2:-1
14:9:12
2:0
15:4:12
2:0
15:3:12
2:0
15:10:12
2:0
15:1:12
2:-1
15:4:12
2:0
0:10:12
-1:0
2:1:11
0:-1
13:11:11
2:-1
15:2:11
2:-1
15:4:11
2:0
15:12:12
2:1
15:6:12
2:0
15:5:12
2:0
3:5:12
0:0
8:1:12
2:-1
15:6:12
2:0
15:7:12
2:0
15:7:12
2:0
15:3:12
2:0
15:8:12
2:0
15:3:12
2:-1
2:4:12
0:0
5:2:12
1:-1
15:11:12
2:1
0:3:12
-1:-1
14:11:11
2:-1
14:2:11
2:-1
15:5:11
2:0
15:5:12
2:0
0:5:12
-1:0
6:4:11
1:0
12:6:12
2:0
15:8:12
2:0
15:6:12
2:0
15:6:12
2:0
15:11:12
2:1
15:2:12
2:-1
1:5:12
-1:0
7:3:11
1:0
13:6:12
2:0
14:10:12
2:0
15:4:12
2:0
15:4:12
2:0
15:7:12
2:0
15:7:12
2:0
7:3:12
1:-1
9:1:12
2:-1
15:9:12
2:0
14:5:12
2:0
15:9:12
2:0
15:1:12
2:-1
14:7:12
2:0
14:11:12
2:0
9:0:12
2:-1
13:3:12
2:0
14:2:12
2:-1
14:10:12
2:0
15:2:12
2:-1
15:5:12
2:0
15:5:12
2:0
15:7:12
2:0
15:6:12
2:0
7:2:12
1:-1
12:3:12
2:0
15:3:12
2:0
15:5:12
2:0
15:8:12
2:0
15:3:12
2:0
15:7:12
2:0
15:8:12
2:0
5:0:12
1:-1
13:2:12
2:-1
15:3:12
2:0
13:11:12
2:0
15:7:12
2:0
14:6:12
2:0
15:8:12
2:0
0:4:12
-1:-1
6:2:11
1:-1
15:8:11
2:0
14:3:12
2:-1
15:5:12
2:0
15:8:12
2:0
14:5:12
2:0
15:2:12
2:-1
15:6:12
2:0
3:5:12
0:0
8:3:12
2:0
14:7:12
2:0
15:5:12
2:0
15:4:12
2:0
14:5:12
2:0
15:5:12
2:0
15:10:12
2:0
0:1:12
-1:-1
6:3:11
1:0
14:9:12
2:0
14:5:12
2:0
14:7:12
2:0
15:5:12
2:0
14:2:12
2:-1
14:9:12
2:0
15:2:12
2:-1
1:6:12
-1:0
8:3:11
2:0
13:3:12
2:0
15:5:12
2:0
15:7:12
2:0
15:4:12
2:0
15:7:12
2:0
14:7:12
2:0
2:6:12
0:0
7:2:12
1:-1
15:10:12
2:0
14:1:12
2:-1
15:7:12
2:0
15:5:12
2:0
14:4:12
2:-1
14:9:12
2:0
15:3:12
2:-1
4:3:12
1:-1
11:2:12
2:-1
15:6:12
2:0
15:7:12
2:0
15:6:12
2:0
15:8:12
2:0
15:9:12
2:0
3:4:12
0:0
7:3:12
1:0
14:7:12
2:0
15:8:12
2:0
0:6:12
-1:0
12:8:11
2:-1
14:1:11
2:-1
14:10:11
2:0
0:3:12
-1:0
5:1:11
1:-1
13:8:11
2:0
15:6:12
2:0
15:9:12
2:0
15:11:12
2:0
15:3:12
2:0
13:11:12
2:1
4:0:12
1:-1
8:2:12
2:-1
14:9:12
2:0
15:5:12
2:0
15:6:12
2:0
15:8:12
2:0
15:1:12
2:-1
14:10:12
2:0
15:3:12
2:0
10:4:12
2:0
15:4:12
2:0
15:5:12
2:0
14:7:12
2:0
14:6:12
2:0
15:4:12
2:0
15:5:12
2:0
4:2:12
1:-1
8:3:12
2:-1
14:10:12
2:0
14:2:12
2:-1
15:11:12
2:0
15:3:12
2:-1
15:4:12
2:0
15:4:12
2:0
2:6:12
0:0
4:1:12
1:-1
15:9:12
2:0
14:3:12
2:-1
15:5:12
2:0
15:10:12
2:0
15:3:12
2:0
15:5:12
2:0
1:0:12
-1:-1
12:1:11
2:-1
13:1:11
2:-1
15:7:11
2:0
15:6:12
2:0
15:11:12
2:0
14:2:12
2:-1
15:6:12
2:0
7:4:12
1:-1
11:3:12
2:0
15:7:12
2:0
15:6:12
2:0
15:13:12
2:1
15:3:12
2:0
15:4:12
2:-1
15:10:12
2:0
9:1:12
2:-1
14:4:12
2:0
14:10:12
2:0
15:3:12
2:0
14:6:12
2:0
14:5:12
2:0
14:7:12
2:0
2:3:12
0:-1
8:5:12
2:0
13:7:12
2:0
15:9:12
2:0
14:2:12
2:-1
13:5:12
2:0
14:6:12
2:0
15:2:12
2:-1
0:6:12
-1:0
7:1:11
1:-1
0:5:11
-1:0
14:7:10
2:-1
14:3:10
2:0
15:11:11
2:1
13:5:12
2:0
12:6:12
2:0
14:12:12
2:1
6:0:12
1:-1
12:5:12
2:0
15:9:12
2:0
15:0:12
2:-1
14:10:12
2:0
15:5:12
2:0
15:7:12
2:0
2:2:12
0:-1
7:5:12
1:0
15:9:12
2:0
15:3:12
2:-1
15:6:12
2:0
0:7:12
-1:0
14:6:11
2:-1
15:1:11
2:-1
2:3:11
0:0
7:2:11
1:-1
15:9:11
2:0
15:2:12
2:-1
15:8:12
2:0
15:5:12
2:0
15:9:12
2:0
14:1:12
2:-1
14:6:12
2:0
3:4:12
0:0
6:2:12
1:-1
13:9:12
2:0
13:7:12
2:0
15:5:12
2:0
14:2:12
2:-1
14:8:12
2:0
15:3:12
2:0
0:4:12
-1:0
5:3:11
1:0
13:8:12
2:0
15:9:12
2:0
15:1:12
2:-1
14:8:12
2:0
15:5:12
2:0
15:9:12
2:0
3:0:12
0:-1
10:6:12
2:0
14:4:12
2:0
15:10:12
2:0
15:8:12
2:0
14:4:12
2:0
15:5:12
2:0
15:7:12
2:0
2:4:12
0:0
12:9:12
2:0
14:6:12
2:0
15:6:12
2:0
15:1:12
2:-1
15:4:12
2:0
13:11:12
2:0
0:3:12
-1:0
3:1:11
0:-1
12:9:11
2:0
15:3:12
2:-1
14:10:12
2:0
15:2:12
2:-1
15:4:12
2:0
15:8:12
2:0
15:9:12
2:0
2:1:12
0:-1
4:1:12
1:-1
14:13:12
2:1
14:0:12
2:-1
15:3:12
2:0
14:7:12
2:0
15:2:12
2:-1
15:10:12
2:0
14:7:12
2:0
9:6:12
2:0
10:1:12
2:-1
15:10:12
2:0
15:4:12
2:0
15:5:12
2:0
15:7:12
2:0
15:11:12
2:0
0:1:12
-1:-1
7:4:11
1:0
13:6:12
2:0
14:6:12
2:0
14:3:12
2:0
15:2:12
2:-1
15:12:12
2:1
14:2:12
2:-1
0:4:12
-1:0
4:3:11
1:0
12:12:12
2:0
13:5:12
2:0
15:5:12
2:0
15:7:12
2:0
15:2:12
2:-1
15:4:12
2:-1
15:6:12
2:0
0:6:12
-1:0
3:1:11
0:-1
14:10:11
2:0
15:4:12
2:0
14:2:12
2:-1
15:7:12
2:0
15:3:12
2:-1
15:4:12
2:0
1:7:12
-1:0
2:1:11
0:-1
11:7:11
2:0
15:4:12
2:0
14:4:12
2:0
15:3:12
2:0
15:5:12
2:0
15:6:12
2:0
12:7:12
2:0
0:9:12
-1:0
8:2:11
2:-1
15:7:11
2:0
14:3:12
2:0
14:5:12
2:0
14:6:12
2:0
15:5:12
2:0
15:6:12
2:0
3:5:12
0:0
10:6:12
2:0
15:7:12
2:0
15:3:12
2:-1
15:9:12
2:0
14:4:12
2:-1
15:10:12
2:0
14:2:12
2:-1
14:7:12
2:0
5:3:12
1:-1
13:4:12
2:0
15:2:12
2:-1
15:6:12
2:0
15:8:12
2:0
13:8:12
2:0
15:5:12
2:0
15:7:12
2:0
0:5:12
-1:0
0:4:11
-1:0
1:8:10
-1:-1
13:0:9
2:-1
13:7:9
2:0
15:1:10
2:-1
15:4:10
2:0
15:8:11
2:0
15:4:12
2:0
2:6:12
0:0
6:1:12
1:-1
14:10:12
2:0
15:8:12
2:0
15:3:12
2:0
14:2:12
2:-1
15:11:12
2:0
15:1:12
2:-1
4:6:12
1:0
12:6:12
2:0
15:10:12
2:0
15:8:12
2:0
13:6:12
2:0
12:8:12
2:0
13:10:12
2:0
8:2:12
2:-1
15:5:12
2:0
14:9:12
2:0
15:3:12
2:0
15:9:12
2:0
14:7:12
2:0
0:9:12
-1:0
6:2:11
1:-1
14:10:11
2:0
15:3:12
2:0
15:6:12
2:0
13:10:12
2:0
13:7:12
2:0
15:11:12
2:0
12:2:12
2:-1
15:2:12
2:-1
14:6:12
2:0
0:6:12
-1:0
14:5:11
2:-1
14:9:11
2:0
14:3:12
2:0
5:7:12
1:0
10:4:12
2:0
14:10:12
2:0
14:5:12
2:0
14:4:12
2:0
15:6:12
2:0
14:4:12
2:0
15:6:12
2:0
9:0:12
2:-1
13:2:12
2:-1
15:6:12
2:0
15:5:12
2:0
15:6:12
2:0
15:4:12
2:0
0:7:12
-1:0
14:6:11
2:-1
0:1:11
-1:-1
5:3:10
1:0
14:8:11
2:0
15:6:12
2:0
14:1:12
2:-1
15:8:12
2:0
15:3:12
2:-1
15:7:12
2:0
15:7:12
2:0
2:2:12
0:-1
10:5:12
2:0
15:3:12
2:0
14:5:12
2:0
14:5:12
2:0
15:7:12
2:0
14:12:12
2:0
14:4:12
2:0
7:4:12
1:0
12:3:12
2:0
15:3:12
2:-1
14:5:12
2:0
14:9:12
2:0
14:2:12
2:-1
14:10:12
2:0
15:8:12
2:0
6:1:12
1:-1
12:1:12
2:-1
14:8:12
2:0
15:2:12
2:-1
14:7:12
2:0
14:6:12
2:0
15:2:12
2:-1
1:0:12
-1:-1
8:0:11
2:-1
0:2:11
-1:-1
11:6:10
2:-1
12:7:10
2:0
2:5:11
0:0
12:7:11
2:-1
15:2:11
2:-1
7:3:11
1:-1
9:2:11
2:-1
13:5:11
2:0
15:7:12
2:0
15:4:12
2:0
15:10:12
2:0
15:2:12
2:-1
15:7:12
2:0
2:3:12
0:0
12:9:12
2:0
15:9:12
2:0
15:1:12
2:-1
14:5:12
2:0
15:8:12
2:0
15:6:12
2:0
2:3:12
0:0
12:8:12
2:0
14:10:12
2:0
15:5:12
2:0
15:6:12
2:0
15:8:12
2:0
14:4:12
2:0
2:6:12
0:0
12:4:12
2:0
15:3:12
2:0
15:6:12
2:0
15:5:12
2:0
14:6:12
2:0
15:9:12
2:0
2:0:12
0:-1
8:2:12
2:-1
12:4:12
2:0
14:11:12
2:0
15:2:12
2:-1
15:9:12
2:0
14:5:12
2:0
14:8:12
2:0
1:4:12
-1:0
8:0:11
2:-1
13:3:11
2:0
15:10:12
2:0
15:5:12
2:0
14:9:12
2:0
15:1:12
2:-1
14:7:12
2:0
6:2:12
1:-1
9:1:12
2:-1
14:6:12
2:0
15:8:12
2:0
15:5:12
2:0
15:7:12
2:0
14:6:12
2:0
2:4:12
0:0
11:3:12
2:-1
14:8:12
2:0
14:3:12
2:0
14:8:12
2:0
15:4:12
2:0
14:6:12
2:0
4:9:12
1:0
6:1:12
1:-1
9:3:12
2:0
15:8:12
2:0
14:7:12
2:0
14:6:12
2:0
12:9:12
2:0
13:5:12
2:0
15:10:12
2:0
0:4:12
-1:0
8:2:11
2:-1
14:5:11
2:0
14:11:12
2:1
15:3:12
2:-1
15:6:12
2:0
15:3:12
2:0
0:4:12
-1:0
4:1:11
1:-1
14:11:11
2:1
15:4:12
2:0
15:9:12
2:0
15:7:12
2:0
15:11:12
2:1
1:1:12
-1:-1
6:5:11
1:0
13:6:12
2:0
15:5:12
2:0
15:8:12
2:0
14:3:12
2:-1
0:3:12
-1:-1
12:10:11
2:-1
14:1:11
2:-1
4:6:11
1:0
11:4:12
2:0
14:5:12
2:0
15:5:12
2:0
15:3:12
2:-1
14:10:12
2:0
15:3:12
2:0
1:2:12
-1:-1
10:9:11
2:0
15:2:12
2:-1
15:4:12
2:0
14:6:12
2:0
14:5:12
2:0
15:2:12
2:-1
4:2:12
1:-1
8:1:12
2:-1
15:8:12
2:0
15:5:12
2:0
15:6:12
2:0
15:10:12
2:0
15:2:12
2:-1
15:7:12
2:0
3:3:12
0:-1
9:6:12
2:0
15:5:12
2:0
13:8:12
2:0
15:3:12
2:0
15:4:12
2:0
15:5:12
2:0
0:10:12
-1:0
14:2:11
2:-1
2:1:11
0:-1
10:7:11
2:0
15:7:12
2:0
14:8:12
2:0
14:8:12
2:0
14:5:12
2:0
14:8:12
2:0
15:5:12
2:0
0:7:12
-1:0
3:1:11
0:-1
12:10:11
2:0
15:7:12
2:0
15:2:12
2:-1
15:6:12
2:0
15:2:12
2:-1
14:11:12
2:0
14:6:12
2:0
5:0:12
1:-1
10:4:12
2:0
15:10:12
2:0
14:3:12
2:0
15:9:12
2:0
15:1:12
2:-1
15:4:12
2:0
15:10:12
2:0
8:4:12
2:-1
12:3:12
2:0
15:6:12
2:0
15:7:12
2:0
15:6:12
2:0
15:6:12
2:0
12:9:12
2:0
11:7:12
2:0
1:2:12
-1:-1
7:3:11
1:0
14:6:12
2:0
15:6:12
2:0
14:6:12
2:0
15:8:12
2:0
15:4:12
2:0
15:10:12
2:0
6:2:12
1:-1
11:3:12
2:0
14:11:12
2:0
15:7:12
2:0
15:9:12
2:0
15:5:12
2:0
15:6:12
2:0
5:5:12
1:0
10:2:12
2:-1
15:4:12
2:0
15:8:12
2:0
15:9:12
2:0
14:2:12
2:-1
14:9:12
2:0
15:1:12
2:-1
15:6:12
2:0
4:1:12
1:-1
12:9:12
2:0
13:8:12
2:0
14:7:12
2:0
14:4:12
2:0
15:7:12
2:0
15:6:12
2:0
15:6:12
2:0
0:1:12
-1:-1
10:8:11
2:0
13:2:12
2:-1
15:9:12
2:0
15:8:12
2:0
15:2:12
2:-1
0:4:12
-1:-1
3:12:11
0:-1
0:2:11
-1:-1
9:2:10
2:-1
12:4:10
2:-1
14:7:10
2:0
15:3:11
2:0
15:7:12
2:0
15:5:12
2:0
14:9:12
2:0
15:3:12
2:0
4:4:12
1:0
12:4:12
2:0
15:3:12
2:0
15:4:12
2:-1
15:8:12
2:0
14:10:12
2:0
15:5:12
2:0
5:4:12
1:-1
7:1:12
1:-1
12:4:12
2:0
15:8:12
2:0
15:7:12
2:0
15:5:12
2:0
15:8:12
2:0
15:6:12
2:0
15:6:12
2:0
15:7:12
2:0
5:2:12
1:-1
9:1:12
2:-1
15:7:12
2:0
15:8:12
2:0
15:6:12
2:0
15:6:12
2:0
15:5:12
2:0
14:7:12
2:0
5:0:12
1:-1
15:6:12
2:0
14:4:12
2:0
14:8:12
2:0
15:8:12
2:0
15:1:12
2:-1
15:8:12
2:0
15:7:12
2:0
2:2:12
0:-1
3:0:12
0:-1
15:10:12
2:0
15:6:12
2:0
15:2:12
2:-1
15:4:12
2:-1
15:6:12
2:0
0:7:12
-1:0
14:6:11
2:-1
14:2:11
2:-1
2:4:11
0:0
12:10:11
2:0
15:2:12
2:-1
15:5:12
2:0
15:7:12
2:0
14:3:12
2:0
15:4:12
2:0
15:9:12
2:0
0:4:12
-1:0
13:10:11
2:1
15:4:12
2:0
15:8:12
2:0
13:8:12
2:0
13:8:12
2:0
1:5:12
-1:0
2:1:11
0:-1
12:11:11
2:1
15:1:12
2:-1
15:9:12
2:0
15:5:12
2:0
11:10:12
2:0
10:4:12
2:0
13:10:12
2:0
6:2:12
1:-1
10:3:12
2:0
15:5:12
2:0
15:7:12
2:0
15:2:12
2:-1
15:11:12
2:0
15:6:12
2:0
15:8:12
2:0
0:0:12
-1:-1
6:3:11
1:0
15:10:12
2:0
15:4:12
2:0
15:10:12
2:0
15:1:12
2:-1
14:10:12
2:0
15:1:12
2:-1
15:8:12
2:0
1:2:12
-1:-1
5:1:11
1:-1
12:7:11
2:0
15:5:12
2:0
15:7:12
2:0
14:5:12
2:0
15:6:12
2:0
14:5:12
2:0
14:9:12
2:0
2:1:12
0:-1
6:1:12
1:-1
15:4:12
2:0
15:3:12
2:-1
15:7:12
2:0
15:9:12
2:0
15:5:12
2:0
14:8:12
2:0
4:7:12
1:0
11:3:12
2:0
13:3:12
2:0
15:7:12
2:0
15:3:12
2:-1
15:6:12
2:0
14:4:12
2:0
15:9:12
2:0
15:4:12
2:0
3:7:12
0:0
6:1:12
1:-1
15:9:12
2:0
15:3:12
2:-1
15:5:12
2:0
15:7:12
2:0
15:1:12
2:-1
15:9:12
2:0
15:6:12
2:0
2:0:12
0:-1
11:4:12
2:0
14:1:12
2:-1
15:3:12
2:-1
15:9:12
2:0
15:3:12
2:0
15:9:12
2:0
15:8:12
2:0
1:1:12
-1:-1
6:3:11
1:0
15:10:12
2:0
15:4:12
2:0
0:8:12
-1:0
14:5:11
2:-1
13:2:11
2:-1
15:9:11
2:0
15:2:12
2:-1
7:1:12
1:-1
0:1:12
-1:-1
2:9:11
0:-1
13:5:11
2:-1
15:3:11
2:0
14:7:12
2:0
15:5:12
2:0
15:4:12
2:0
4:3:12
1:-1
10:5:12
2:0
14:8:12
2:0
15:5:12
2:0
15:3:12
2:-1
15:9:12
2:0
15:4:12
2:-1
15:3:12
2:-1
0:9:12
-1:0
5:3:11
1:0
12:7:12
2:0
15:6:12
2:0
15:7:12
2:0
15:4:12
2:-1
15:8:12
2:0
15:4:12
2:0
15:6:12
2:0
1:4:12
-1:0
9:8:11
2:0
14:5:12
2:0
14:6:12
2:0
15:5:12
2:0
15:5:12
2:0
15:10:12
2:0
14:4:12
2:0
14:8:12
2:0
4:1:12
1:-1
0:1:12
-1:-1
12:9:11
2:-1
14:1:11
2:-1
15:5:11
2:0
15:9:12
2:0
15:5:12
2:0
15:4:12
2:0
7:5:12
1:0
11:2:12
2:-1
15:8:12
2:0
15:9:12
2:0
15:2:12
2:-1
15:6:12
2:0
15:7:12
2:0
15:4:12
2:0
7:4:12
1:-1
9:1:12
2:-1
15:8:12
2:0
15:6:12
2:0
15:3:12
2:-1
15:10:12
2:0
15:4:12
2:-1
15:5:12
2:0
13:6:12
2:0
4:2:12
1:-1
10:2:12
2:-1
15:5:12
2:0
15:5:12
2:0
15:11:12
2:0
14:1:12
2:-1
15:11:12
2:1
15:5:12
2:0
4:4:12
1:-1
14:7:12
2:0
14:6:12
2:0
15:1:12
2:-1
15:10:12
2:0
15:5:12
2:0
15:4:12
2:0
15:8:12
2:0
5:4:12
1:0
9:1:12
2:-1
14:6:12
2:0
14:7:12
2:0
15:6:12
2:0
14:1:12
2:-1
15:7:12
2:0
15:10:12
2:0
15:5:12
2:0
3:1:12
0:-1
13:6:12
2:0
15:3:12
2:0
15:7:12
2:0
15:6:12
2:0
15:6:12
2:0
15:2:12
2:-1
15:6:12
2:0
1:6:12
-1:0
6:4:11
1:0
15:11:12
2:0
15:1:12
2:-1
14:1:12
2:-1
15:8:12
2:0
15:3:12
2:-1
15:10:12
2:0
3:1:12
0:-1
6:1:12
1:-1
15:9:12
2:0
15:4:12
2:-1
15:9:12
2:0
15:5:12
2:0
15:7:12
2:0
14:10:12
2:0
2:0:12
0:-1
10:4:12
2:0
15:2:12
2:-1
13:3:12
2:-1
15:5:12
2:0
15:7:12
2:0
14:6:12
2:0
15:5:12
2:0
15:1:12
2:-1
2:6:12
0:0
10:8:12
2:0
12:8:12
2:0
11:9:12
2:0
12:7:12
2:0
12:2:12
2:-1
14:12:12
2:1
15:3:12
2:0
10:2:12
2:-1
15:3:12
2:0
15:9:12
2:0
15:2:12
2:-1
14:6:12
2:0
15:5:12
2:0
15:6:12
2:0
6:7:12
1:0
7:0:12
1:-1
15:9:12
2:0
14:3:12
2:-1
15:3:12
2:0
15:7:12
2:0
15:6:12
2:0
14:6:12
2:0
14:7:12
2:0
6:4:12
1:0
7:2:12
1:-1
12:5:12
2:0
15:9:12
2:0
14:7:12
2:0
15:6:12
2:0
0:1:12
-1:-1
12:11:11
2:-1
0:7:11
-1:0
8:4:10
2:0
12:4:11
2:0
15:7:12
2:0
14:5:12
2:0
15:6:12
2:0
15:3:12
2:-1
15:7:12
2:0
14:7:12
2:0
0:6:12
-1:0
8:2:11
2:-1
15:6:11
2:0
15:5:12
2:0
15:9:12
2:0
15:1:12
2:-1
15:6:12
2:0
15:7:12
2:0
3:2:12
0:-1
10:2:12
2:-1
15:7:12
2:0
14:5:12
2:0
15:5:12
2:0
13:9:12
2:0
15:4:12
2:0
15:4:12
2:0
15:2:12
2:-1
2:3:12
0:-1
11:3:12
2:0
15:4:12
2:0
14:3:12
2:0
15:8:12
2:0
15:4:12
2:0
15:1:12
2:-1
12:9:12
2:0
12:6:12
2:0
3:4:12
0:-1
12:1:12
2:-1
15:4:12
2:0
15:6:12
2:0
14:11:12
2:0
15:4:12
2:0
15:5:12
2:0
0:1:12
-1:-1
4:1:11
1:-1
14:12:11
2:1
15:2:12
2:-1
14:2:12
2:-1
15:4:12
2:0
15:3:12
2:-1
15:13:12
2:1
0:3:12
-1:0
5:5:11
1:0
7:2:12
1:-1
15:8:12
2:0
14:4:12
2:0
13:8:12
2:0
14:7:12
2:0
15:9:12
2:0
14:1:12
2:-1
7:4:12
1:0
11:1:12
2:-1
15:8:12
2:0
0:6:12
-1:0
14:6:11
2:-1
13:7:11
2:0
15:7:12
2:0
1:1:12
-1:-1
7:1:11
1:-1
15:10:11
2:0
15:2:12
2:-1
15:8:12
2:0
14:4:12
2:0
15:6:12
2:0
15:6:12
2:0
15:6:12
2:0
8:1:12
2:-1
15:5:12
2:0
15:2:12
2:-1
15:10:12
2:0
15:2:12
2:-1
15:8:12
2:0
15:9:12
2:0
15:1:12
2:-1
3:4:12
0:-1
10:6:12
2:0
15:6:12
2:0
15:10:12
2:0
15:5:12
2:0
15:1:12
2:-1
14:8:12
2:0
1:6:12
-1:0
4:1:11
1:-1
14:10:11
2:1
15:1:12
2:-1
15:10:12
2:0
15:3:12
2:0
15:6:12
2:0
15:7:12
2:0
15:6:12
2:0
3:4:12
0:0
6:2:12
1:-1
15:10:12
2:0
15:7:12
2:0
15:1:12
2:-1
14:7:12
2:0
14:6:12
2:0
15:5:12
2:0
4:4:12
1:-1
6:1:12
1:-1
9:2:12
2:-1
15:10:12
2:0
15:1:12
2:-1
15:6:12
2:0
15:4:12
2:0
15:8:12
2:0
14:5:12
2:0
15:9:12
2:0
5:0:12
1:-1
9:2:12
2:-1
14:9:12
2:0
14:7:12
2:0
15:9:12
2:0
14:1:12
2:-1
15:8:12
2:0
15:5:12
2:0
0:6:12
-1:0
3:1:11
0:-1
13:10:11
2:1
15:5:12
2:0
13:9:12
2:0
14:9:12
2:0
15:2:12
2:-1
15:6:12
2:0
0:6:12
-1:0
2:1:11
0:-1
12:10:11
2:0
15:5:12
2:0
15:7:12
2:0
15:5:12
2:0
15:8:12
2:0
15:10:12
2:0
2:1:12
0:-1
11:3:12
2:0
14:3:12
2:-1
15:7:12
2:0
15:9:12
2:0
14:9:12
2:0
15:4:12
2:0
15:8:12
2:0
14:7:12
2:0
4:2:12
1:-1
15:11:12
2:0
15:1:12
2:-1
15:6:12
2:0
14:7:12
2:0
15:5:12
2:0
15:0:12
2:-1
14:11:12
2:0
2:1:12
0:-1
4:1:12
1:-1
14:10:12
2:0
15:7:12
2:0
15:6:12
2:0
15:6:12
2:0
15:8:12
2:0
15:3:12
2:0
15:7:12
2:0
4:1:12
1:-1
15:6:12
2:0
15:2:12
2:-1
14:1:12
2:-1
14:10:12
2:0
14:4:12
2:0
14:8:12
2:0
1:2:12
-1:-1
4:2:11
1:-1
13:11:11
2:1
14:5:12
2:0
15:7:12
2:0
15:6:12
2:0
15:8:12
2:0
14:2:12
2:-1
15:5:12
2:0
2:3:12
0:0
11:7:12
2:0
15:10:12
2:0
14:4:12
2:0
14:7:12
2:0
14:5:12
2:0
15:6:12
2:0
15:5:12
2:0
2:5:12
0:0
7:3:12
1:0
12:9:12
2:0
12:7:12
2:0
15:7:12
2:0
14:5:12
2:0
15:6:12
2:0
15:6:12
2:0
2:8:12
0:0
8:3:12
2:0
14:5:12
2:0
15:6:12
2:0
15:5:12
2:0
15:11:12
2:0
15:5:12
2:0
15:3:12
2:0
3:5:12
0:0
5:1:12
1:-1
13:8:12
2:0
15:5:12
2:0
15:7:12
2:0
14:1:12
2:-1
15:6:12
2:0
15:7:12
2:0
15:7:12
2:0
10:0:12
2:-1
12:1:12
2:-1
15:8:12
2:0
14:2:12
2:-1
14:7:12
2:0
14:1:12
2:-1
15:7:12
2:0
15:7:12
2:0
2:3:12
0:0
9:1:12
2:-1
14:8:12
2:0
15:2:12
2:-1
15:8:12
2:0
15:5:12
2:0
15:5:12
2:0
14:5:12
2:0
2:4:12
0:0
7:3:12
1:0
14:9:12
2:0
15:5:12
2:0
14:2:12
2:-1
15:6:12
2:0
15:6:12
2:0
15:6:12
2:0
15:7:12
2:0
4:4:12
1:0
8:1:12
2:-1
15:10:12
2:0
15:4:12
2:0
14:5:12
2:0
15:7:12
2:0
15:6:12
2:0
13:9:12
2:0
6:5:12
1:0
12:3:12
2:-1
14:3:12
2:0
14:8:12
2:0
15:7:12
2:0
15:4:12
2:0
14:11:12
2:0
0:3:12
-1:0
10:3:11
2:0
10:0:12
2:-1
13:12:12
2:0
15:4:12
2:0
15:6:12
2:0
15:9:12
2:0
0:2:12
-1:-1
3:1:11
0:-1
13:9:11
2:0
15:3:12
2:-1
15:9:12
2:0
15:5:12
2:0
15:10:12
2:0
15:4:12
2:0
15:6:12
2:0
15:7:12
2:0
7:4:12
1:-1
12:6:12
2:0
13:4:12
2:0
15:3:12
2:0
15:3:12
2:-1
15:7:12
2:0
14:7:12
2:0
2:4:12
0:0
12:1:12
2:-1
14:4:12
2:0
15:5:12
2:0
15:6:12
2:0
15:6:12
2:0
14:6:12
2:0
14:9:12
2:0
4:1:12
1:-1
11:1:12
2:-1
14:6:12
2:0
15:4:12
2:0
15:7:12
2:0
13:6:12
2:0
14:7:12
2:0
14:3:12
2:-1
1:2:12
-1:-1
6:2:11
1:-1
13:6:11
2:0
15:10:12
2:0
15:2:12
2:-1
15:10:12
2:0
14:8:12
2:0
15:6:12
2:0
0:3:12
-1:-1
5:4:11
1:0
15:11:12
2:1
15:2:12
2:-1
13:7:12
2:0
13:8:12
2:0
14:6:12
2:0
15:8:12
2:0
6:0:12
1:-1
15:2:12
2:-1
14:1:12
2:-1
15:9:12
2:0
15:6:12
2:0
15:5:12
2:0
14:8:12
2:0
1:2:12
-1:-1
6:0:11
1:-1
13:6:11
2:0
14:8:12
2:0
13:9:12
2:0
15:3:12
2:0
15:6:12
2:0
15:4:12
2:0
3:0:12
0:-1
7:3:12
1:0
15:10:12
2:0
14:8:12
2:0
15:1:12
2:-1
15:7:12
2:0
15:5:12
2:0
13:8:12
2:0
4:8:12
1:0
12:6:12
2:0
15:4:12
2:0
15:6:12
2:0
15:1:12
2:-1
14:13:12
2:1
15:4:12
2:0
2:7:12
0:0
4:1:12
1:-1
15:10:12
2:0
15:5:12
2:0
15:10:12
2:0
15:5:12
2:0
15:4:12
2:0
1:8:12
-1:0
7:3:11
1:0
13:6:12
2:0
15:7:12
2:0
14:5:12
2:0
13:10:12
2:0
15:3:12
2:0
15:7:12
2:0
2:6:12
0:0
9:2:12
2:-1
15:7:12
2:0
15:7:12
2:0
15:7:12
2:0
15:4:12
2:-1
15:6:12
2:0
15:5:12
2:0
0:7:12
-1:0
6:3:11
1:0
15:9:12
2:0
15:7:12
2:0
12:9:12
2:0
14:7:12
2:0
15:1:12
2:-1
15:9:12
2:0
2:5:12
0:0
11:9:12
2:0
14:3:12
2:-1
12:10:12
2:0
12:4:12
2:-1
14:7:12
2:0
15:5:12
2:0
15:1:12
2:-1
3:3:12
0:0
11:7:12
2:0
14:8:12
2:0
15:5:12
2:0
14:7:12
2:0
14:1:12
2:-1
15:4:12
2:0
15:6:12
2:0
15:7:12
2:0
4:1:12
1:-1
9:3:12
2:0
15:7:12
2:0
14:8:12
2:0
13:8:12
2:0
14:7:12
2:0
13:7:12
2:0
0:8:12
-1:0
2:1:11
0:-1
10:7:11
2:0
14:10:12
2:0
14:7:12
2:0
14:6:12
2:0
14:6:12
2:0
15:4:12
2:0
1:1:12
-1:-1
8:1:11
2:-1
15:6:11
2:0
15:5:12
2:0
15:10:12
2:0
15:4:12
2:0
15:3:12
2:0
15:9:12
2:0
2:2:12
0:-1
7:5:12
1:0
14:8:12
2:0
14:7:12
2:0
14:7:12
2:0
15:4:12
2:0
14:1:12
2:-1
14:8:12
2:0
14:4:12
2:0
2:0:12
0:-1
7:3:12
1:0
15:13:12
2:1
15:3:12
2:0
15:10:12
2:0
15:0:12
2:-1
15:3:12
2:-1
15:10:12
2:0
0:4:12
-1:0
5:6:11
1:0
9:6:12
2:0
13:8:12
2:0
15:5:12
2:0
15:4:12
2:0
15:5:12
2:0
15:6:12
2:0
15:3:12
2:-1
3:4:12
0:-1
12:8:12
2:0
15:6:12
2:0
15:7:12
2:0
15:3:12
2:0
15:5:12
2:0
15:8:12
2:0
3:6:12
0:0
8:1:12
2:-1
12:3:12
2:0
15:5:12
2:0
14:8:12
2:0
15:6:12
2:0
15:7:12
2:0
15:4:12
2:0
14:6:12
2:0
14:8:12
2:0
2:4:12
0:-1
5:5:12
1:-1
0:2:12
-1:-1
12:3:11
2:-1
13:1:11
2:-1
15:9:11
2:0
13:7:12
2:0
15:4:12
2:0
15:5:12
2:0
0:7:12
-1:0
3:1:11
0:-1
13:10:11
2:0
15:4:12
2:0
15:10:12
2:0
15:5:12
2:0
15:12:12
2:0
15:1:12
2:-1
0:7:12
-1:0
5:4:11
1:0
13:7:12
2:0
15:5:12
2:0
14:3:12
2:0
15:3:12
2:0
15:7:12
2:0
14:5:12
2:0
15:3:12
2:0
3:4:12
0:-1
15:7:12
2:0
15:1:12
2:-1
14:4:12
2:0
15:11:12
2:0
14:1:12
2:-1
15:8:12
2:0
15:4:12
2:0
9:0:12
2:-1
15:1:12
2:-1
14:6:12
2:0
15:4:12
2:0
15:6:12
2:0
15:6:12
2:0
12:8:12
2:0
12:6:12
2:0
1:1:12
-1:-1
6:5:11
1:0
14:9:12
2:0
15:3:12
2:0
15:4:12
2:0
15:6:12
2:0
0:8:12
-1:0
0:8:11
-1:-1
6:3:10
1:-1
10:3:10
2:0
15:6:11
2:0
15:6:12
2:0
15:6:12
2:0
15:9:12
2:0
14:9:12
2:0
0:3:12
-1:0
3:2:11
0:-1
9:6:11
2:0
14:9:12
2:0
15:4:12
2:0
15:6:12
2:0
14:8:12
2:0
13:9:12
2:0
13:11:12
2:0
3:2:12
0:-1
11:1:12
2:-1
15:5:12
2:0
0:4:12
-1:-1
13:9:11
2:-1
15:2:11
2:-1
14:5:11
2:0
15:7:12
2:0
14:6:12
2:0
9:0:12
2:-1
15:6:12
2:0
14:10:12
2:0
14:5:12
2:0
15:1:12
2:-1
15:5:12
2:0
1:8:12
-1:0
9:2:11
2:-1
15:8:11
2:0
14:6:12
2:0
15:6:12
2:0
0:4:12
-1:0
13:7:11
2:-1
13:5:11
2:0
5:5:12
1:0
8:1:12
2:-1
15:8:12
2:0
15:1:12
2:-1
15:7:12
2:0
15:4:12
2:0
15:9:12
2:0
6:0:12
1:-1
14:6:12
2:0
15:3:12
2:-1
15:7:12
2:0
15:5:12
2:0
15:7:12
2:0
15:8:12
2:0
3:5:12
0:0
11:1:12
2:-1
15:6:12
2:0
15:3:12
2:-1
15:7:12
2:0
14:8:12
2:0
15:6:12
2:0
12:5:12
2:-1
4:12:12
1:1
5:1:12
1:-1
9:5:12
2:0
14:4:12
2:0
15:8:12
2:0
15:5:12
2:0
14:9:12
2:0
15:4:12
2:0
14:5:12
2:0
0:5:12
-1:0
6:6:11
1:0
15:5:12
2:0
15:5:12
2:0
15:6:12
2:0
0:4:12
-1:-1
14:9:11
2:-1
14:2:11
2:-1
15:7:11
2:0
2:1:12
0:-1
10:6:12
2:0
14:6:12
2:0
15:6:12
2:0
15:3:12
2:-1
15:9:12
2:0
13:3:12
2:-1
13:9:12
2:0
6:5:12
1:-1
12:5:12
2:0
14:5:12
2:0
14:9:12
2:0
14:5:12
2:0
15:7:12
2:0
14:9:12
2:0
15:2:12
2:-1
4:5:12
1:0
11:2:12
2:-1
15:5:12
2:0
15:4:12
2:0
15:4:12
2:0
0:9:12
-1:0
14:2:11
2:-1
13:4:11
2:0
1:2:12
-1:-1
10:3:11
2:0
12:2:12
2:-1
14:10:12
2:0
15:3:12
2:0
15:10:12
2:0
15:5:12
2:0
14:8:12
2:0
0:5:12
-1:0
11:4:11
2:0
14:2:12
2:-1
15:10:12
2:0
15:3:12
2:-1
15:9:12
2:0
15:7:12
2:0
14:6:12
2:0
7:2:12
1:-1
13:4:12
2:0
15:9:12
2:0
15:9:12
2:0
13:8:12
2:0
13:10:12
2:0
15:1:12
2:-1
15:5:12
2:0
7:2:12
1:-1
12:1:12
2:-1
14:5:12
2:0
15:6:12
2:0
15:2:12
2:-1
15:8:12
2:0
15:6:12
2:0
15:6:12
2:0
5:4:12
1:-1
9:2:12
2:-1
13:4:12
2:0
15:7:12
2:0
14:8:12
2:0
0:3:12
-1:-1
12:10:11
2:-1
15:4:11
2:0
14:3:12
2:-1
1:3:12
-1:-1
14:2:11
2:-1
15:2:11
2:-1
14:8:11
2:0
15:6:12
2:0
15:6:12
2:0
14:5:12
2:0
4:2:12
1:-1
10:4:12
2:0
14:8:12
2:0
15:5:12
2:0
15:8:12
2:0
15:6:12
2:0
15:2:12
2:-1
14:3:12
2:0
5:5:12
1:0
7:2:12
1:-1
14:6:12
2:0
14:9:12
2:0
15:3:12
2:0
15:2:12
2:-1
15:3:12
2:0
2:9:12
0:0
5:2:12
1:-1
8:4:12
2:0
15:7:12
2:0
15:8:12
2:0
15:7:12
2:0
15:7:12
2:0
15:3:12
2:-1
0:11:12
-1:1
3:1:12
0:-1
12:13:12
2:0
14:2:12
2:-1
15:7:12
2:0
13:6:12
2:0
15:9:12
2:0
15:3:12
2:0
15:4:12
2:0
0:0:12
-1:-1
9:7:11
2:0
14:7:12
2:0
13:9:12
2:0
11:8:12
2:0
15:11:12
2:0
14:1:12
2:-1
14:10:12
2:0
14:3:12
2:0
4:1:12
1:-1
12:6:12
2:0
15:7:12
2:0
15:2:12
2:-1
15:8:12
2:0
14:2:12
2:-1
14:9:12
2:0
15:4:12
2:0
0:4:12
-1:0
11:4:11
2:-1
15:8:11
2:0
15:5:12
2:0
15:6:12
2:0
15:6:12
2:0
15:6:12
2:0
15:7:12
2:0
14:3:12
2:-1
7:3:12
1:-1
15:5:12
2:0
15:5:12
2:0
15:2:12
2:-1
14:12:12
2:1
14:6:12
2:0
15:2:12
2:-1
1:7:12
-1:0
4:1:11
1:-1
8:1:11
2:-1
15:7:11
2:0
15:9:12
2:0
14:5:12
2:0
14:2:12
2:-1
15:5:12
2:0
15:2:12
2:-1
8:4:12
2:-1
13:3:12
2:0
14:6:12
2:0
0:3:12
-1:-1
13:6:11
2:-1
15:2:11
2:-1
15:4:11
2:0
15:10:12
2:0
1:2:12
-1:-1
6:3:11
1:0
15:13:12
2:1
15:4:12
2:0
15:8:12
2:0
15:2:12
2:-1
15:10:12
2:0
15:3:12
2:0
6:4:12
1:0
15:4:12
2:0
15:4:12
2:0
15:9:12
2:0
15:7:12
2:0
15:5:12
2:0
15:4:12
2:0
14:9:12
2:0
7:2:12
1:-1
15:9:12
2:0
15:10:12
2:0
15:6:12
2:0
13:3:12
2:0
13:5:12
2:0
4:5:12
1:0
8:3:12
2:0
14:9:12
2:0
15:3:12
2:0
15:7:12
2:0
15:2:12
2:-1
15:10:12
2:0
0:3:12
-1:0
6:3:11
1:0
15:10:12
2:0
14:7:12
2:0
15:2:12
2:-1
15:9:12
2:0
15:4:12
2:0
12:9:12
2:0
0:5:12
-1:0
6:3:11
1:0
12:7:12
2:0
13:7:12
2:0
15:6:12
2:0
15:3:12
2:-1
14:8:12
2:0
15:4:12
2:0
0:2:12
-1:-1
11:1:11
2:-1
15:11:11
2:0
14:3:12
2:0
15:9:12
2:0
15:1:12
2:-1
15:11:12
2:0
2:2:12
0:-1
15:6:12
2:0
15:2:12
2:-1
14:2:12
2:-1
15:6:12
2:0
15:9:12
2:0
15:6:12
2:0
5:4:12
1:0
14:5:12
2:0
15:3:12
2:0
14:7:12
2:0
15:8:12
2:0
15:1:12
2:-1
15:10:12
2:0
15:8:12
2:0
8:4:12
2:-1
10:1:12
2:-1
14:10:12
2:0
15:4:12
2:0
15:4:12
2:0
15:8:12
2:0
15:5:12
2:0
2:7:12
0:0
9:3:12
2:-1
15:8:12
2:0
15:3:12
2:-1
15:1:12
2:-1
15:8:12
2:0
15:7:12
2:0
13:6:12
2:0
0:6:12
-1:0
7:5:11
1:0
15:7:12
2:0
14:1:12
2:-1
14:9:12
2:0
15:3:12
2:0
0:4:12
-1:-1
13:7:11
2:-1
15:1:11
2:-1
2:2:11
0:-1
11:7:11
2:0
13:4:12
2:-1
13:5:12
2:0
14:9:12
2:0
14:6:12
2:0
1:6:12
-1:0
12:7:11
2:-1
0:4:11
-1:0
4:4:10
1:0
12:8:11
2:0
15:8:12
2:0
15:2:12
2:-1
14:4:12
2:0
14:7:12
2:0
15:6:12
2:0
15:8:12
2:0
2:1:12
0:-1
12:6:12
2:0
15:6:12
2:0
15:2:12
2:-1
15:6:12
2:0
14:9:12
2:0
15:5:12
2:0
2:2:12
0:-1
6:2:12
1:-1
15:5:12
2:0
14:2:12
2:-1
15:10:12
2:0
15:2:12
2:-1
15:4:12
2:0
15:13:12
2:1
5:0:12
1:-1
14:6:12
2:0
15:3:12
2:0
15:4:12
2:0
15:6:12
2:0
15:6:12
2:0
15:8:12
2:0
14:4:12
2:0
2:3:12
0:-1
14:8:12
2:0
14:3:12
2:-1
14:7:12
2:0
11:5:12
2:-1
12:11:12
2:0
15:4:12
2:0
14:10:12
2:0
4:1:12
1:-1
9:4:12
2:0
14:9:12
2:0
15:1:12
2:-1
15:6:12
2:0
14:7:12
2:0
15:6:12
2:0
14:4:12
2:0
4:3:12
1:-1
13:2:12
2:-1
15:4:12
2:0
15:12:12
2:1
15:2:12
2:-1
15:7:12
2:0
15:8:12
2:0
4:6:12
1:0
10:4:12
2:0
13:6:12
2:0
11:11:12
2:0
13:5:12
2:0
15:11:12
2:1
15:5:12
2:0
15:8:12
2:0
9:1:12
2:-1
15:9:12
2:0
14:2:12
2:-1
15:8:12
2:0
14:3:12
2:-1
14:10:12
2:0
15:6:12
2:0
1:4:12
-1:0
11:3:11
2:0
14:3:12
2:-1
15:6:12
2:0
15:5:12
2:0
15:10:12
2:0
15:1:12
2:-1
15:9:12
2:0
8:1:12
2:-1
12:1:12
2:-1
15:10:12
2:0
0:4:12
-1:-1
12:11:11
2:-1
12:3:11
2:-1
13:10:11
2:1
15:2:12
2:-1
5:4:12
1:0
11:5:12
2:0
14:6:12
2:0
15:6:12
2:0
15:7:12
2:0
15:10:12
2:0
15:3:12
2:0
0:7:12
-1:0
2:1:11
0:-1
12:10:11
2:0
15:4:12
2:0
14:10:12
2:0
15:5:12
2:0
14:1:12
2:-1
14:10:12
2:0
0:4:12
-1:0
7:1:11
1:-1
10:3:11
2:-1
15:9:11
2:0
15:6:12
2:0
15:6:12
2:0
14:4:12
2:0
15:7:12
2:0
15:4:12
2:-1
8:0:12
2:-1
12:4:12
2:0
15:9:12
2:0
14:6:12
2:0
15:6:12
2:0
14:1:12
2:-1
15:7:12
2:0
14:7:12
2:0
0:2:12
-1:-1
7:5:11
1:0
13:6:12
2:0
15:6:12
2:0
14:9:12
2:0
13:7:12
2:0
14:6:12
2:0
15:7:12
2:0
1:5:12
-1:0
8:0:11
2:-1
10:1:11
2:-1
15:8:11
2:0
15:4:12
2:0
14:8:12
2:0
15:6:12
2:0
14:9:12
2:0
0:6:12
-1:0
7:2:11
1:-1
11:4:11
2:0
15:13:12
2:1
15:1:12
2:-1
14:7:12
2:0
15:8:12
2:0
0:6:12
-1:0
0:6:11
-1:-1
8:6:10
2:0
14:6:11
2:0
15:6:12
2:0
15:3:12
2:-1
14:10:12
2:0
15:9:12
2:0
15:3:12
2:0
0:1:12
-1:-1
6:4:11
1:0
15:8:12
2:0
15:2:12
2:-1
15:8:12
2:0
15:3:12
2:-1
15:7:12
2:0
15:7:12
2:0
2:3:12
0:-1
15:11:12
2:1
15:5:12
2:0
15:5:12
2:0
15:8:12
2:0
15:4:12
2:0
14:2:12
2:-1
3:2:12
0:-1
13:9:12
2:0
15:8:12
2:0
15:6:12
2:0
14:7:12
2:0
15:5:12
2:0
15:2:12
2:-1
4:5:12
1:0
10:1:12
2:-1
14:5:12
2:0
14:9:12
2:0
15:0:12
2:-1
15:8:12
2:0
0:6:12
-1:0
12:9:11
2:-1
12:1:11
2:-1
3:3:11
0:0
13:9:11
2:0
15:6:12
2:0
15:5:12
2:0
14:8:12
2:0
15:4:12
2:0
15:6:12
2:0
15:6:12
2:0
2:2:12
0:-1
6:3:12
1:0
12:6:12
2:0
15:4:12
2:0
15:11:12
2:0
14:5:12
2:0
14:9:12
2:0
15:4:12
2:0
15:5:12
2:0
5:4:12
1:0
15:5:12
2:0
14:1:12
2:-1
14:9:12
2:0
15:4:12
2:0
15:6:12
2:0
15:7:12
2:0
15:6:12
2:0
3:3:12
0:-1
5:2:12
1:-1
13:8:12
2:0
15:6:12
2:0
14:12:12
2:0
15:1:12
2:-1
0:8:12
-1:0
14:6:11
2:-1
0:1:11
-1:-1
4:1:10
1:-1
11:6:10
2:0
15:4:11
2:0
15:4:12
2:0
15:7:12
2:0
15:5:12
2:0
15:9:12
2:0
14:9:12
2:0
10:1:12
2:-1
12:2:12
2:-1
15:9:12
2:0
15:3:12
2:-1
13:2:12
2:-1
14:9:12
2:0
15:4:12
2:0
15:9:12
2:0
7:2:12
1:-1
12:1:12
2:-1
14:9:12
2:0
14:1:12
2:-1
15:5:12
2:0
15:8:12
2:0
15:9:12
2:0
2:0:12
0:-1
8:7:12
2:0
15:6:12
2:0
14:3:12
2:-1
15:7:12
2:0
15:2:12
2:-1
15:9:12
2:0
15:4:12
2:0
0:5:12
-1:0
6:3:11
1:-1
[...]
13:6:11
2:0
15:3:12
2:0
15:4:12
2:0
15:5:12
2:0
15:4:12
2:-1
3:0:12
0:-1
6:2:12
1:-1
14:11:12
2:1
15:3:12
2:0
15:7:12
2:0
15:2:12
2:-1
15:10:12
2:0
15:3:12
2:-1
15:6:12
2:0
2:5:12
0:0
4:1:12
1:-1
12:7:12
2:0
15:6:12
2:0
14:6:12
2:0
14:4:12
2:0
15:6:12
2:0
15:2:12
2:-1
15:8:12
2:0
15:4:12
2:0
15:9:12
2:0
2:1:12
0:-1
9:6:12
2:0
13:3:12
2:0
15:7:12
2:0
14:1:12
2:-1
15:7:12
2:0
0:6:12
-1:0
13:6:11
2:-1
13:2:11
2:-1
4:4:11
1:0
6:2:12
1:-1
13:7:12
2:0
15:6:12
2:0
14:8:12
2:0
15:8:12
2:0
15:4:12
2:0
15:8:12
2:0
15:3:12
2:0
3:3:12
0:0
10:3:12
2:-1
14:4:12
2:0
15:10:12
2:0
15:1:12
2:-1
14:8:12
2:0
14:2:12
2:-1
15:9:12
2:0
0:3:12
-1:-1
3:6:11
0:-1
7:1:11
1:-1
11:5:11
2:0
12:1:12
2:-1
14:7:12
2:0
15:4:12
2:0
15:4:12
2:0
15:7:12
2:0
14:6:12
2:0
15:2:12
2:-1
14:2:12
2:-1
14:7:12
2:0
4:2:12
1:-1
7:1:12
1:-1
11:4:12
2:0
15:6:12
2:0
15:8:12
2:0
14:5:12
2:0
15:8:12
2:0
15:2:12
2:-1
15:5:12
2:0
15:4:12
2:0
0:3:12
-1:-1
4:1:11
1:-1
13:9:11
2:0
15:7:12
2:0
14:2:12
2:-1
15:5:12
2:0
15:5:12
2:0
15:2:12
2:-1
15:5:12
2:0
15:3:12
2:0
15:4:12
2:0
7:5:12
1:0
13:4:12
2:0
15:6:12
2:0
15:8:12
2:0
15:7:12
2:0
14:6:12
2:0
14:10:12
2:0
15:2:12
2:-1
1:7:12
-1:0
0:2:11
-1:-1
12:4:10
2:-1
14:4:10
2:0
15:2:11
2:-1
14:8:11
2:0
15:4:12
2:0
14:7:12
2:0
13:1:12
2:-1
0:6:12
-1:0
8:1:11
2:-1
13:3:11
2:-1
15:9:11
2:0
15:3:12
2:-1
15:7:12
2:0
14:8:12
2:0
15:6:12
2:0
14:5:12
2:0
2:4:12
0:0
11:1:12
2:-1
13:1:12
2:-1
15:13:12
2:1
15:2:12
2:-1
15:9:12
2:0
15:5:12
2:0
15:6:12
2:0
3:3:12
0:0
6:1:12
1:-1
6:1:12
1:-1
8:2:12
2:-1
15:8:12
2:0
15:3:12
2:-1
14:9:12
2:0
15:5:12
2:0
15:2:12
2:-1
15:4:12
2:-1
14:9:12
2:0
0:3:12
-1:0
8:2:11
2:-1
10:2:11
2:-1
15:6:11
2:0
15:5:12
2:0
15:7:12
2:0
14:2:12
2:-1
14:8:12
2:0
14:0:12
2:-1
15:1:12
2:-1
15:5:12
2:0
2:3:12
0:0
5:1:12
1:-1
15:10:12
2:0
15:2:12
2:-1
15:5:12
2:0
14:6:12
2:0
15:7:12
2:0
15:3:12
2:-1
15:8:12
2:0
0:7:12
-1:0
4:3:11
1:0
10:6:12
2:0
15:7:12
2:0
15:7:12
2:0
15:7:12
2:0
14:7:12
2:0
13:8:12
2:0
15:6:12
2:0
0:6:12
-1:0
8:2:11
2:-1
12:3:11
2:-1
14:9:11
2:0
15:7:12
2:0
15:2:12
2:-1
15:9:12
2:0
14:1:12
2:-1
15:7:12
2:0
15:5:12
2:0
0:5:12
-1:0
4:1:11
1:-1
13:10:11
2:1
14:5:12
2:0
14:4:12
2:0
15:5:12
2:0
15:5:12
2:0
15:7:12
2:0
14:5:12
2:0
15:6:12
2:0
1:3:12
-1:0
9:7:11
2:0
14:6:12
2:0
14:4:12
2:0
15:10:12
2:0
15:3:12
2:-1
15:10:12
2:0
14:3:12
2:-1
15:7:12
2:0
0:3:12
-1:-1
8:7:11
2:0
13:4:12
2:0
15:8:12
2:0
15:2:12
2:-1
14:11:12
2:1
15:2:12
2:-1
15:4:12
2:0
15:5:12
2:0
14:7:12
2:0
5:5:12
1:0
0:2:12
-1:-1
14:6:11
2:-1
13:1:11
2:-1
15:6:11
2:0
15:6:12
2:0
15:3:12
2:-1
15:7:12
2:0
14:7:12
2:0
7:3:12
1:-1
9:0:12
2:-1
12:3:12
2:-1
15:12:12
2:1
15:3:12
2:0
14:7:12
2:0
15:3:12
2:0
15:9:12
2:0
15:3:12
2:0
15:2:12
2:-1
4:3:12
1:-1
8:2:12
2:-1
13:8:12
2:0
13:5:12
2:0
1:7:12
-1:0
14:6:11
2:-1
12:2:11
2:-1
13:4:11
2:0
13:6:12
2:0
14:4:12
2:0
15:5:12
2:0
2:2:12
0:-1
6:2:12
1:-1
13:7:12
2:0
14:8:12
2:0
14:5:12
2:0
15:8:12
2:0
14:4:12
2:0
14:3:12
2:0
14:5:12
2:0
14:6:12
2:0
3:2:12
0:-1
7:4:12
1:0
15:9:12
2:0
15:2:12
2:-1
14:8:12
2:0
15:5:12
2:0
15:3:12
2:0
15:4:12
2:0
15:7:12
2:0
0:6:12
-1:0
6:6:11
1:0
9:3:12
2:-1
14:7:12
2:0
15:10:12
2:0
15:1:12
2:-1
15:6:12
2:0
15:7:12
2:0
15:7:12
2:0
0:5:12
-1:0
0:2:11
-1:-1
9:6:10
2:-1
14:4:10
2:0
15:5:11
2:0
15:6:12
2:0
14:8:12
2:0
15:0:12
2:-1
15:4:12
2:-1
15:4:12
2:0
15:5:12
2:0
1:6:12
-1:0
5:1:11
1:-1
11:6:11
2:0
15:4:12
2:0
15:3:12
2:0
15:5:12
2:0
15:7:12
2:0
15:7:12
2:0
14:2:12
2:-1
15:10:12
2:0
15:2:12
2:-1
3:3:12
0:-1
5:1:12
1:-1
12:7:12
2:0
15:7:12
2:0
14:5:12
2:0
15:5:12
2:0
15:3:12
2:0
14:1:12
2:-1
15:11:12
2:0
14:1:12
2:-1
2:1:12
0:-1
12:9:12
2:0
15:3:12
2:0
14:5:12
2:0
15:3:12
2:0
15:7:12
2:0
15:2:12
2:-1
15:8:12
2:0
15:5:12
2:0
15:5:12
2:0
11:1:12
2:-1
15:1:12
2:-1
15:3:12
2:-1
15:3:12
2:0
15:5:12
2:0
15:8:12
2:0
14:2:12
2:-1
14:7:12
2:0
15:5:12
2:0
0:1:12
-1:-1
3:8:11
0:-1
7:2:11
1:-1
14:7:11
2:0
13:7:12
2:0
13:6:12
2:0
15:7:12
2:0
14:6:12
2:0
15:6:12
2:0
0:0:12
-1:-1
6:2:11
1:-1
10:3:11
2:0
15:8:12
2:0
15:6:12
2:0
15:7:12
2:0
14:6:12
2:0
14:6:12
2:0
15:6:12
2:0
0:8:12
-1:0
2:1:11
0:-1
9:3:11
2:0
15:7:12
2:0
15:5:12
2:0
15:7:12
2:0
15:4:12
2:0
15:10:12
2:0
15:7:12
2:0
15:3:12
2:0
2:1:12
0:-1
7:1:12
1:-1
13:6:12
2:0
15:5:12
2:0
14:5:12
2:0
15:7:12
2:0
15:3:12
2:0
15:7:12
2:0
15:4:12
2:0
14:5:12
2:0
2:6:12
0:0
15:10:12
2:0
14:1:12
2:-1
14:5:12
2:0
14:7:12
2:0
15:2:12
2:-1
14:5:12
2:0
14:7:12
2:0
15:3:12
2:0
0:6:12
-1:0
2:1:11
0:-1
12:10:11
2:1
15:3:12
2:0
14:6:12
2:0
15:6:12
2:0
15:2:12
2:-1
15:11:12
2:0
14:1:12
2:-1
15:4:12
2:0
14:8:12
2:0
8:0:12
2:-1
12:3:12
2:0
14:4:12
2:0
15:7:12
2:0
15:3:12
2:0
15:3:12
2:0
15:7:12
2:0
15:5:12
2:0
15:7:12
2:0
14:6:12
2:0
1:3:12
-1:0
7:1:11
1:-1
9:2:11
2:-1
13:4:11
2:0
15:4:12
2:0
14:4:12
2:0
15:7:12
2:0
14:3:12
2:0
15:5:12
2:0
15:5:12
2:0
0:4:12
-1:-1
3:7:11
0:-1
13:9:11
2:0
15:3:12
2:-1
15:7:12
2:0
14:8:12
2:0
14:5:12
2:0
15:9:12
2:0
15:1:12
2:-1
15:6:12
2:0
6:2:12
1:-1
12:6:12
2:0
13:7:12
2:0
13:4:12
2:0
15:6:12
2:0
13:8:12
2:0
15:6:12
2:0
14:8:12
2:0
4:3:12
1:0
8:2:12
2:-1
14:5:12
2:0
14:6:12
2:0
14:9:12
2:0
14:1:12
2:-1
15:9:12
2:0
15:3:12
2:-1
15:11:12
2:1
0:2:12
-1:-1
3:1:11
0:-1
13:11:11
2:1
14:3:12
2:0
14:10:12
2:0
15:3:12
2:0
15:4:12
2:0
13:7:12
2:0
13:6:12
2:0
13:4:12
2:0
0:3:12
-1:0
4:1:11
1:-1
15:7:11
2:0
14:1:12
2:-1
15:3:12
2:0
14:8:12
2:0
15:4:12
2:0
15:6:12
2:0
15:8:12
2:0
15:5:12
2:0
5:1:12
1:-1
7:1:12
1:-1
10:3:12
2:-1
14:8:12
2:0
15:3:12
2:0
14:7:12
2:0
15:7:12
2:0
15:1:12
2:-1
14:5:12
2:0
15:7:12
2:0
2:2:12
0:-1
6:2:12
1:-1
12:6:12
2:0
15:6:12
2:0
15:7:12
2:0
15:5:12
2:0
15:7:12
2:0
15:3:12
2:-1
14:7:12
2:0
15:4:12
2:0
5:4:12
1:0
10:4:12
2:0
15:8:12
2:0
15:5:12
2:0
14:6:12
2:0
15:9:12
2:0
15:2:12
2:-1
14:10:12
2:0
3:3:12
0:-1
9:5:12
2:0
15:6:12
2:0
15:5:12
2:0
14:3:12
2:-1
14:6:12
2:0
14:5:12
2:0
15:7:12
2:0
0:6:12
-1:0
5:6:11
1:-1
9:2:11
2:-1
15:8:11
2:0
14:2:12
2:-1
15:3:12
2:0
15:6:12
2:0
14:5:12
2:0
14:4:12
2:0
15:6:12
2:0
15:3:12
2:-1
1:5:12
-1:0
2:0:11
0:-1
8:4:11
2:0
13:5:12
2:0
15:9:12
2:0
15:1:12
2:-1
14:6:12
2:0
15:4:12
2:0
15:8:12
2:0
15:4:12
2:0
15:4:12
2:0
2:2:12
0:-1
7:3:12
1:0
10:3:12
2:-1
15:5:12
2:0
15:10:12
2:0
15:3:12
2:0
15:4:12
2:0
15:5:12
2:0
14:6:12
2:0
14:9:12
2:0
4:2:12
1:-1
4:0:12
1:-1
11:7:12
2:0
14:5:12
2:0
14:5:12
2:0
15:3:12
2:0
0:9:12
-1:0
13:6:11
2:-1
13:1:11
2:-1
13:9:11
2:0
4:3:12
1:-1
12:2:12
2:-1
14:2:12
2:-1
15:5:12
2:0
15:5:12
2:0
15:3:12
2:-1
15:2:12
2:-1
14:8:12
2:0
15:6:12
2:0
15:4:12
2:0
1:1:12
-1:-1
5:3:11
1:0
9:5:12
2:0
15:7:12
2:0
14:6:12
2:0
15:7:12
2:0
15:2:12
2:-1
15:11:12
2:1
15:1:12
2:-1
15:3:12
2:0
1:3:12
-1:0
9:0:11
2:-1
11:0:11
2:-1
13:3:11
2:-1
14:7:11
2:0
15:4:12
2:0
15:4:12
2:0
15:4:12
2:0
15:3:12
2:-1
15:10:12
2:0
15:3:12
2:0
0:0:12
-1:-1
7:4:11
1:0
11:3:12
2:0
15:9:12
2:0
15:1:12
2:-1
15:5:12
2:0
15:5:12
2:0
15:6:12
2:0
14:5:12
2:0
12:7:12
2:0
3:2:12
0:-1
9:4:12
2:0
13:11:12
2:0
13:11:12
2:0
15:7:12
2:0
15:8:12
2:0
15:9:12
2:0
3:4:12
0:-1
8:2:12
2:-1
10:3:12
2:0
15:8:12
2:0
15:0:12
2:-1
15:4:12
2:0
15:10:12
2:0
15:3:12
2:-1
15:3:12
2:-1
15:9:12
2:0
1:3:12
-1:-1
4:0:11
1:-1
13:5:11
2:0
15:4:12
2:0
15:6:12
2:0
15:7:12
2:0
15:4:12
2:0
14:5:12
2:0
15:4:12
2:0
14:6:12
2:0
0:6:12
-1:0
8:3:11
2:0
10:2:12
2:-1
15:9:12
2:0
15:5:12
2:0
15:4:12
2:0
0:2:12
-1:-1
11:9:11
2:-1
12:4:11
2:0
14:5:12
2:0
15:5:12
2:0
15:1:12
2:-1
10:2:12
2:-1
11:0:12
2:-1
14:3:12
2:-1
15:8:12
2:0
15:1:12
2:-1
15:6:12
2:0
15:3:12
2:0
15:5:12
2:0
15:5:12
2:0
15:3:12
2:-1
3:5:12
0:-1
9:3:12
2:0
14:8:12
2:0
15:11:12
2:1
14:1:12
2:-1
14:3:12
2:0
14:8:12
2:0
15:1:12
2:-1
1:7:12
-1:0
3:1:11
0:-1
5:1:11
1:-1
15:8:11
2:0
0:1:12
-1:-1
14:6:11
2:-1
14:5:11
2:0
14:4:12
2:0
14:4:12
2:0
15:6:12
2:0
15:4:12
2:0
2:6:12
0:0
4:1:12
1:-1
10:4:12
2:0
14:6:12
2:0
15:5:12
2:0
15:4:12
2:0
15:5:12
2:0
15:5:12
2:0
14:5:12
2:0
15:6:12
2:0
15:4:12
2:0
3:3:12
0:0
7:2:12
1:-1
15:8:12
2:0
14:5:12
2:0
14:8:12
2:0
15:2:12
2:-1
14:2:12
2:-1
14:9:12
2:0
14:1:12
2:-1
15:10:12
2:0
1:1:12
-1:-1
8:2:11
2:-1
12:2:11
2:-1
15:3:11
2:0
15:7:12
2:0
0:4:12
-1:0
12:8:11
2:-1
15:2:11
2:-1
15:1:11
2:-1
2:9:11
0:0
9:3:11
2:-1
11:3:11
2:-1
0:5:11
-1:0
13:6:10
2:-1
13:1:10
2:-1
14:3:10
2:-1
14:8:10
2:0
14:3:11
2:0
14:9:12
2:0
0:1:12
-1:-1
9:3:11
2:0
13:4:12
2:-1
15:10:12
2:0
14:5:12
2:0
15:10:12
2:0
15:3:12
2:-1
15:8:12
2:0
2:5:12
0:0
9:3:12
2:0
12:3:12
2:0
15:9:12
2:0
14:1:12
2:-1
15:5:12
2:0
15:7:12
2:0
15:6:12
2:0
14:6:12
2:0
0:3:12
-1:-1
5:7:11
1:-1
8:2:11
2:-1
10:3:11
2:0
14:5:12
2:0
15:6:12
2:0
15:3:12
2:-1
15:5:12
2:0
14:2:12
2:-1
14:9:12
2:0
3:2:12
0:-1
6:1:12
1:-1
7:1:12
1:-1
14:7:12
2:0
15:6:12
2:0
15:4:12
2:0
15:2:12
2:-1
14:10:12
2:0
14:4:12
2:0
14:4:12
2:0
14:6:12
2:0
15:1:12
2:-1
12:1:12
2:-1
14:4:12
2:0
12:8:12
2:0
13:7:12
2:0
14:10:12
2:0
14:3:12
2:0
15:10:12
2:0
0:3:12
-1:0
7:1:11
1:-1
11:5:11
2:0
14:6:12
2:0
15:3:12
2:0
15:5:12
2:0
14:3:12
2:-1
14:7:12
2:0
15:4:12
2:0
1:7:12
-1:0
4:1:11
1:-1
10:7:11
2:0
14:3:12
2:0
15:4:12
2:0
15:5:12
2:0
14:6:12
2:0
14:8:12
2:0
14:2:12
2:-1
14:7:12
2:0
14:5:12
2:0
2:5:12
0:0
7:6:12
1:0
12:10:12
2:0
14:5:12
2:0
15:6:12
2:0
14:2:12
2:-1
15:3:12
2:0
15:2:12
2:-1
15:7:12
2:0
15:6:12
2:0
4:1:12
1:-1
6:2:12
1:-1
15:10:12
2:0
14:6:12
2:0
15:4:12
2:0
15:6:12
2:0
15:5:12
2:0
14:3:12
2:-1
2:7:12
0:0
7:2:12
1:-1
9:2:12
2:-1
15:10:12
2:0
15:3:12
2:-1
15:2:12
2:-1
14:6:12
2:0
14:6:12
2:0
14:1:12
2:-1
14:10:12
2:0
15:2:12
2:-1
1:6:12
-1:0
9:8:11
2:0
13:1:12
2:-1
15:9:12
2:0
15:5:12
2:0
14:9:12
2:0
15:5:12
2:0
14:6:12
2:0
15:6:12
2:0
2:2:12
0:-1
0:2:12
-1:-1
12:8:11
2:-1
13:6:11
2:0
14:5:12
2:0
13:2:12
2:-1
14:8:12
2:0
15:1:12
2:-1
14:8:12
2:0
14:5:12
2:0
14:5:12
2:0
6:2:12
1:-1
0:3:12
-1:-1
14:6:11
2:-1
15:3:11
2:0
15:7:12
2:0
15:5:12
2:0
15:9:12
2:0
3:2:12
0:-1
12:2:12
2:-1
14:3:12
2:-1
15:6:12
2:0
15:7:12
2:0
14:2:12
2:-1
14:7:12
2:0
14:6:12
2:0
15:2:12
2:-1
15:7:12
2:0
2:3:12
0:-1
7:4:12
1:0
12:5:12
2:0
15:11:12
2:0
15:1:12
2:-1
14:6:12
2:0
15:7:12
2:0
14:2:12
2:-1
15:6:12
2:0
10:0:12
2:-1
12:2:12
2:-1
15:9:12
2:0
15:2:12
2:-1
15:4:12
2:-1
15:8:12
2:0
15:3:12
2:-1
15:5:12
2:0
15:5:12
2:0
15:4:12
2:0
2:3:12
0:0
5:2:12
1:-1
13:8:12
2:0
15:6:12
2:0
15:6:12
2:0
15:3:12
2:0
15:10:12
2:0
15:3:12
2:0
14:3:12
2:0
2:3:12
0:0
9:2:12
2:-1
14:5:12
2:0
15:4:12
2:0
15:8:12
2:0
15:5:12
2:0
15:10:12
2:0
15:1:12
2:-1
3:4:12
0:-1
12:7:12
2:0
15:3:12
2:0
15:6:12
2:0
14:7:12
2:0
14:6:12
2:0
15:7:12
2:0
15:5:12
2:0
15:7:12
2:0
0:4:12
-1:-1
5:3:11
1:0
13:8:12
2:0
14:7:12
2:0
15:10:12
2:0
14:1:12
2:-1
14:3:12
2:0
15:5:12
2:0
14:2:12
2:-1
15:8:12
2:0
6:2:12
1:-1
8:1:12
2:-1
14:9:12
2:0
14:4:12
2:0
15:1:12
2:-1
15:7:12
2:0
15:8:12
2:0
15:7:12
2:0
0:7:12
-1:0
4:1:11
1:-1
10:6:11
2:0
15:5:12
2:0
15:2:12
2:-1
14:10:12
2:0
15:2:12
2:-1
15:1:12
2:-1
15:10:12
2:0
14:3:12
2:-1
15:3:12
2:0
0:6:12
-1:0
2:1:11
0:-1
11:8:11
2:0
15:6:12
2:0
14:6:12
2:0
14:5:12
2:0
15:5:12
2:0
15:1:12
2:-1
15:6:12
2:0
14:5:12
2:0
6:5:12
1:0
7:1:12
1:-1
15:8:12
2:0
14:2:12
2:-1
15:7:12
2:0
14:3:12
2:0
0:6:12
-1:0
14:4:11
2:-1
14:2:11
2:-1
13:9:11
2:0
13:6:12
2:0
2:0:12
0:-1
4:1:12
1:-1
14:10:12
2:0
15:6:12
2:0
15:4:12
2:0
15:5:12
2:0
15:8:12
2:0
14:5:12
2:0
14:5:12
2:0
15:5:12
2:0
4:1:12
1:-1
15:4:12
2:0
15:1:12
2:-1
15:9:12
2:0
14:1:12
2:-1
15:8:12
2:0
15:0:12
2:-1
0:10:12
-1:0
1:0:11
-1:-1
10:8:10
2:0
14:6:11
2:0
15:1:12
2:-1
15:8:12
2:0
15:3:12
2:0
15:2:12
2:-1
15:9:12
2:0
15:4:12
2:0
0:8:12
-1:0
3:1:11
0:-1
13:11:11
2:1
15:4:12
2:0
13:4:12
2:0
14:7:12
2:0
15:3:12
2:0
15:4:12
2:0
15:3:12
2:0
15:7:12
2:0
1:1:12
-1:-1
8:2:11
2:-1
10:2:11
2:-1
14:5:11
2:0
15:5:12
2:0
15:6:12
2:0
15:4:12
2:0
15:7:12
2:0
14:7:12
2:0
14:2:12
2:-1
15:4:12
2:0
1:5:12
-1:0
9:0:11
2:-1
12:1:11
2:-1
15:2:11
2:-1
14:4:11
2:0
15:7:12
2:0
15:4:12
2:-1
14:4:12
2:0
15:8:12
2:0
15:6:12
2:0
1:3:12
-1:-1
6:3:11
1:-1
13:2:11
2:-1
15:3:11
2:0
15:2:12
2:-1
15:6:12
2:0
15:6:12
2:0
15:3:12
2:-1
15:9:12
2:0
14:5:12
2:0
1:2:12
-1:-1
7:2:11
1:-1
15:8:11
2:0
14:2:12
2:-1
0:2:12
-1:-1
12:7:11
2:-1
11:4:11
2:0
15:6:12
2:0
15:2:12
2:-1
15:8:12
2:0
0:5:12
-1:0
3:1:11
0:-1
6:3:11
1:0
13:8:12
2:0
14:7:12
2:0
14:3:12
2:0
15:6:12
2:0
14:3:12
2:-1
15:1:12
2:-1
15:7:12
2:0
15:6:12
2:0
1:0:12
-1:-1
5:1:11
1:-1
14:8:11
2:0
14:5:12
2:0
15:6:12
2:0
15:4:12
2:0
15:5:12
2:0
14:9:12
2:0
15:3:12
2:0
15:10:12
2:0
5:0:12
1:-1
10:1:12
2:-1
15:7:12
2:0
14:5:12
2:0
13:8:12
2:0
14:6:12
2:0
14:6:12
2:0
13:5:12
2:0
3:5:12
0:0
7:1:12
1:-1
13:6:12
2:0
14:7:12
2:0
15:3:12
2:0
15:5:12
2:0
15:6:12
2:0
15:4:12
2:0
15:5:12
2:0
4:8:12
1:0
6:0:12
1:-1
10:4:12
2:-1
15:5:12
2:0
15:4:12
2:0
15:10:12
2:0
14:1:12
2:-1
15:7:12
2:0
14:7:12
2:0
15:5:12
2:0
0:1:12
-1:-1
9:4:11
2:0
10:1:12
2:-1
15:6:12
2:0
15:1:12
2:-1
15:3:12
2:-1
14:6:12
2:0
15:5:12
2:0
15:3:12
2:-1
1:9:12
-1:0
3:2:11
0:-1
15:10:11
2:0
15:1:12
2:-1
15:6:12
2:0
15:7:12
2:0
14:5:12
2:0
15:6:12
2:0
15:4:12
2:0
15:5:12
2:0
4:1:12
1:-1
8:2:12
2:-1
15:7:12
2:0
14:5:12
2:0
15:4:12
2:0
12:7:12
2:0
12:7:12
2:0
15:7:12
2:0
15:5:12
2:0
15:7:12
2:0
10:3:12
2:-1
11:2:12
2:-1
15:10:12
2:0
14:1:12
2:-1
14:5:12
2:0
15:8:12
2:0
15:4:12
2:0
15:9:12
2:0
2:1:12
0:-1
8:2:12
2:-1
11:3:12
2:-1
15:8:12
2:0
15:4:12
2:0
15:6:12
2:0
14:8:12
2:0
15:3:12
2:0
0:11:12
-1:0
2:1:11
0:-1
10:6:11
2:0
13:2:12
2:-1
15:5:12
2:0
15:5:12
2:0
15:4:12
2:0
14:7:12
2:0
12:7:12
2:0
13:6:12
2:0
15:6:12
2:0
6:4:12
1:0
14:8:12
2:0
14:5:12
2:0
15:6:12
2:0
14:7:12
2:0
15:6:12
2:0
15:4:12
2:0
15:6:12
2:0
15:6:12
2:0
3:1:12
0:-1
9:3:12
2:0
14:9:12
2:0
14:4:12
2:0
15:1:12
2:-1
14:11:12
2:1
15:8:12
2:0
14:3:12
2:0
5:7:12
1:0
8:1:12
2:-1
15:8:12
2:0
15:2:12
2:-1
15:13:12
2:1
15:1:12
2:-1
1:10:12
-1:0
5:3:11
1:-1
14:9:11
2:0
13:7:12
2:0
12:5:12
2:0
14:5:12
2:0
15:7:12
2:0
15:8:12
2:0
14:6:12
2:0
2:3:12
0:0
11:7:12
2:0
14:5:12
2:0
15:8:12
2:0
15:7:12
2:0
15:7:12
2:0
13:7:12
2:0
2:7:12
0:0
5:4:12
1:0
15:9:12
2:0
15:2:12
2:-1
14:11:12
2:0
15:6:12
2:0
13:8:12
2:0
14:8:12
2:0
6:1:12
1:-1
10:3:12
2:0
14:6:12
2:0
15:10:12
2:0
14:6:12
2:0
14:4:12
2:0
13:9:12
2:0
1:1:12
-1:-1
8:2:11
2:-1
15:7:11
2:0
14:2:12
2:-1
14:4:12
2:0
14:10:12
2:0
15:3:12
2:-1
15:7:12
2:0
15:4:12
2:0
2:4:12
0:0
11:9:12
2:0
15:9:12
2:0
15:3:12
2:-1
15:8:12
2:0
15:7:12
2:0
0:4:12
-1:0
7:2:11
1:-1
14:4:11
2:0
15:2:12
2:-1
15:8:12
2:0
14:7:12
2:0
15:2:12
2:-1
15:6:12
2:0
0:8:12
-1:0
6:6:11
1:0
12:6:12
2:0
15:8:12
2:0
14:4:12
2:0
15:9:12
2:0
14:2:12
2:-1
15:2:12
2:-1
2:1:12
0:-1
8:7:12
2:0
13:8:12
2:0
14:6:12
2:0
14:8:12
2:0
15:2:12
2:-1
15:7:12
2:0
14:9:12
2:0
1:3:12
-1:0
8:1:11
2:-1
14:5:11
2:0
15:7:12
2:0
15:8:12
2:0
15:7:12
2:0
15:11:12
2:1
15:1:12
2:-1
4:7:12
1:0
12:6:12
2:0
15:7:12
2:0
14:7:12
2:0
15:6:12
2:0
15:6:12
2:0
14:10:12
2:0
0:8:12
-1:0
9:3:11
2:0
15:9:12
2:0
15:5:12
2:0
14:5:12
2:0
15:4:12
2:0
14:7:12
2:0
6:4:12
1:0
15:8:12
2:0
14:3:12
2:-1
15:9:12
2:0
15:6:12
2:0
15:6:12
2:0
15:7:12
2:0
15:7:12
2:0
7:3:12
1:-1
14:6:12
2:0
15:10:12
2:0
14:2:12
2:-1
15:10:12
2:0
14:2:12
2:-1
15:7:12
2:0
15:5:12
2:0
5:1:12
1:-1
8:1:12
2:-1
14:11:12
2:0
14:3:12
2:-1
15:8:12
2:0
15:6:12
2:0
15:7:12
2:0
0:10:12
-1:0
7:5:11
1:0
14:6:12
2:0
15:7:12
2:0
15:5:12
2:0
15:7:12
2:0
15:7:12
2:0
15:7:12
2:0
0:4:12
-1:0
13:3:11
2:-1
15:7:11
2:0
15:1:12
2:-1
15:10:12
2:0
15:11:12
2:0
14:2:12
2:-1
15:8:12
2:0
3:0:12
0:-1
11:7:12
2:0
15:10:12
2:0
15:6:12
2:0
14:6:12
2:0
14:6:12
2:0
14:3:12
2:0
2:3:12
0:0
4:1:12
1:-1
11:6:12
2:0
15:7:12
2:0
14:8:12
2:0
13:7:12
2:0
14:8:12
2:0
15:3:12
2:0
15:5:12
2:0
2:8:12
0:0
14:3:12
2:-1
15:8:12
2:0
15:7:12
2:0
15:5:12
2:0
15:11:12
2:0
4:2:12
1:-1
9:4:12
2:0
14:5:12
2:0
15:7:12
2:0
15:7:12
2:0
11:13:12
2:0
12:3:12
2:0
14:5:12
2:0
2:6:12
0:0
8:1:12
2:-1
13:5:12
2:0
14:3:12
2:0
15:8:12
2:0
15:3:12
2:0
14:10:12
2:0
14:8:12
2:0
15:5:12
2:0
4:3:12
1:-1
7:2:12
1:-1
14:11:12
2:1
15:2:12
2:-1
15:3:12
2:-1
15:11:12
2:1
14:2:12
2:-1
0:3:12
-1:-1
12:9:11
2:-1
3:1:11
0:-1
7:2:11
1:-1
15:11:11
2:1
15:2:12
2:-1
15:7:12
2:0
15:5:12
2:0
15:7:12
2:0
15:7:12
2:0
0:2:12
-1:-1
9:6:11
2:0
15:7:12
2:0
15:6:12
2:0
15:6:12
2:0
15:7:12
2:0
15:5:12
2:0
14:8:12
2:0
1:10:12
-1:0
0:1:11
-1:-1
7:2:10
1:-1
1:1:10
-1:-1
13:9:9
2:-1
14:2:9
2:-1
15:1:9
2:-1
15:7:9
2:0
15:2:10
2:-1
0:7:10
-1:0
6:4:9
1:0
12:6:10
2:0
15:4:11
2:0
15:8:12
2:0
15:5:12
2:0
14:4:12
2:-1
15:9:12
2:0
15:5:12
2:0
7:5:12
1:0
9:1:12
2:-1
14:5:12
2:0
15:6:12
2:0
14:7:12
2:0
15:9:12
2:0
14:4:12
2:0
15:2:12
2:-1
14:11:12
2:1
7:2:12
1:-1
11:1:12
2:-1
15:6:12
2:0
15:4:12
2:0
15:9:12
2:0
15:4:12
2:0
14:8:12
2:0
15:6:12
2:0
2:5:12
0:0
8:4:12
2:0
15:7:12
2:0
14:8:12
2:0
14:10:12
2:0
15:1:12
2:-1
15:8:12
2:0
0:8:12
-1:0
5:6:11
1:0
12:8:12
2:0
15:7:12
2:0
14:7:12
2:0
14:4:12
2:0
15:7:12
2:0
15:8:12
2:0
2:6:12
0:0
11:1:12
2:-1
14:3:12
2:0
14:9:12
2:0
14:5:12
2:0
15:10:12
2:0
13:7:12
2:0
3:3:12
0:0
9:2:12
2:-1
15:7:12
2:0
14:9:12
2:0
14:8:12
2:0
12:9:12
2:0
12:9:12
2:0
15:7:12
2:0
11:2:12
2:-1
15:3:12
2:0
14:11:12
2:0
15:3:12
2:0
15:10:12
2:0
15:5:12
2:0
15:10:12
2:0
3:0:12
0:-1
12:8:12
2:0
15:8:12
2:0
12:9:12
2:0
12:9:12
2:0
15:6:12
2:0
15:9:12
2:0
0:2:12
-1:-1
2:1:11
0:-1
12:10:11
2:0
15:4:12
2:0
14:9:12
2:0
15:6:12
2:0
15:8:12
2:0
14:3:12
2:0
0:10:12
-1:0
6:4:11
1:0
15:9:12
2:0
14:10:12
2:0
15:2:12
2:-1
15:3:12
2:0
15:6:12
2:0
8:2:12
2:-1
14:4:12
2:0
15:11:12
2:0
15:7:12
2:0
15:7:12
2:0
15:10:12
2:0
0:3:12
-1:0
3:1:11
0:-1
13:10:11
2:1
15:6:12
2:0
15:4:12
2:0
15:9:12
2:0
14:8:12
2:0
15:4:12
2:0
1:7:12
-1:0
3:1:11
0:-1
10:6:11
2:0
15:5:12
2:0
15:2:12
2:-1
15:9:12
2:0
15:2:12
2:-1
14:10:12
2:0
15:6:12
2:0
15:2:12
2:-1
1:3:12
-1:-1
9:8:11
2:0
13:5:12
2:0
15:10:12
2:0
15:7:12
2:0
15:6:12
2:0
11:12:12
2:0
11:10:12
2:0
6:2:12
1:-1
12:3:12
2:0
14:5:12
2:0
15:8:12
2:0
15:0:12
2:-1
15:4:12
2:0
15:6:12
2:0
15:6:12
2:0
15:7:12
2:0
4:3:12
1:-1
8:2:12
2:-1
15:8:12
2:0
15:5:12
2:0
15:7:12
2:0
15:5:12
2:0
15:6:12
2:0
15:6:12
2:0
0:1:12
-1:-1
Finished CPU 0 instructions: 10000000 cycles: 19397652 cumulative IPC: 0.515526 (Simulation time: 0 hr 0 min 50 sec) 

CPU 0 Branch Prediction Accuracy: 97.172% MPKI: 0.5028 Average ROB Occupancy at Mispredict: 323.903

ChampSim completed all CPUs

Region of Interest Statistics

CPU 0 cumulative IPC: 0.515526 instructions: 10000000 cycles: 19397652
L1D TOTAL     ACCESS:    3427728  HIT:    2651335  MISS:     776393
L1D LOAD      ACCESS:     906924  HIT:     814628  MISS:      92296
L1D RFO       ACCESS:    1788220  HIT:    1130923  MISS:     657297
L1D PREFETCH  ACCESS:     732584  HIT:     705784  MISS:      26800
L1D WRITEBACK ACCESS:          0  HIT:          0  MISS:          0
L1D PREFETCH  REQUESTED:     986722  ISSUED:     975216  USEFUL:      31724  USELESS:       2299
L1D AVERAGE MISS LATENCY: 80151.4 cycles
L1I TOTAL     ACCESS:    2176042  HIT:    2176042  MISS:          0
L1I LOAD      ACCESS:    2176042  HIT:    2176042  MISS:          0
L1I RFO       ACCESS:          0  HIT:          0  MISS:          0
L1I PREFETCH  ACCESS:          0  HIT:          0  MISS:          0
L1I WRITEBACK ACCESS:          0  HIT:          0  MISS:          0
L1I PREFETCH  REQUESTED:          0  ISSUED:          0  USEFUL:          0  USELESS:          0
L1I AVERAGE MISS LATENCY: -nan cycles
L2C TOTAL     ACCESS:    1612598  HIT:    1141322  MISS:     471276
L2C LOAD      ACCESS:      85536  HIT:      63131  MISS:      22405
L2C RFO       ACCESS:     657296  HIT:     304311  MISS:     352985
L2C PREFETCH  ACCESS:     212468  HIT:     116585  MISS:      95883
L2C WRITEBACK ACCESS:     657298  HIT:     657295  MISS:          3
L2C PREFETCH  REQUESTED:     271792  ISSUED:     270270  USEFUL:      65339  USELESS:      39611
L2C AVERAGE MISS LATENCY: 651.579 cycles
LLC TOTAL     ACCESS:     823659  HIT:     354000  MISS:     469659
LLC LOAD      ACCESS:       8957  HIT:          7  MISS:       8950
LLC RFO       ACCESS:     352985  HIT:        883  MISS:     352102
LLC PREFETCH  ACCESS:     109331  HIT:        739  MISS:     108592
LLC WRITEBACK ACCESS:     352386  HIT:     352371  MISS:         15
LLC PREFETCH  REQUESTED:          0  ISSUED:          0  USEFUL:          1  USELESS:     109483
LLC AVERAGE MISS LATENCY: 634.483 cycles
Major fault: 0 Minor fault: 7186
CPU 0 L2C next line prefetcher final stats

DRAM Statistics
 CHANNEL 0
 RQ ROW_BUFFER_HIT:     142852  ROW_BUFFER_MISS:     326792
 DBUS_CONGESTED:     598972
 WQ ROW_BUFFER_HIT:      75611  ROW_BUFFER_MISS:     277501  FULL:          0

 AVG_CONGESTED_CYCLE: 6
