
*** ChampSim Multicore Out-of-Order Simulator ***

Warmup Instructions: 1000000
Simulation Instructions: 10000000
Number of CPUs: 1
LLC sets: 2048
LLC ways: 16
Off-chip DRAM Size: 4096 MB Channels: 1 Width: 64-bit Data Rate: 3200 MT/s

CPU 0 runs /home/light/7th-Sem/cs622/project/ChampSim/dpc3_traces/620.omnetpp_s-874B.champsimtrace.xz
3:19:4
0:-1
1:12:4
-1:-1
0:20:3
-1:-1
1:19:2
-1:-1
0:21:1
-1:-1
0:9:1
-1:-1
2:6:1
0:-1
0:6:1
-1:-1
0:8:1
-1:-1
0:6:1
-1:-1
4:5:1
1:-1
0:4:1
-1:-1
0:6:1
-1:-1
2:6:1
0:-1
0:2:1
-1:-1
0:12:1
-1:-1
4:9:1
1:-1
0:4:1
-1:-1
0:9:1
-1:-1
3:12:1
0:-1
0:5:1
-1:1
0:3:1
-1:-1
2:12:1
0:-1
0:5:1
-1:-1
0:7:1
-1:-1
0:4:1
-1:-1
0:11:1
-1:-1
0:26:1
-1:-1
0:9:1
-1:1
0:8:1
-1:-1
0:4:1
-1:-1
2:8:1
0:-1
1:10:1
-1:-1
2:15:1
0:-1
0:6:1
-1:1
4:2:1
1:-1
6:14:1
1:-1
0:17:1
-1:-1
0:4:1
-1:-1
2:6:1
0:-1
0:8:1
-1:-1
0:6:1
-1:-1
0:6:1
-1:-1
0:6:1
-1:-1
0:2:1
-1:1
0:13:1
-1:-1
0:22:1
-1:1
2:5:1
0:-1
0:5:1
-1:1
0:9:1
-1:-1
0:3:1
-1:-1
0:10:1
-1:-1
2:8:1
0:-1
1:6:1
-1:-1
0:3:1
-1:-1
0:7:1
-1:-1
4:17:1
1:1
0:6:2
-1:-1
4:5:1
1:-1
0:15:1
-1:-1
3:10:1
0:-1
0:15:1
-1:-1
2:4:1
0:-1
1:2:1
-1:-1
1:8:1
-1:-1
0:3:1
-1:-1
0:11:1
-1:-1
1:30:1
-1:-1
2:11:1
0:-1
7:11:1
1:-1
0:6:1
-1:1
1:7:1
-1:-1
0:18:1
-1:-1
0:34:1
-1:-1
0:9:1
-1:-1
0:8:1
-1:-1
1:26:1
-1:-1
0:12:1
-1:-1
0:8:1
-1:1
0:37:1
-1:1
0:29:1
-1:-1
3:11:1
0:-1
0:2:1
-1:-1
2:21:1
0:1
1:27:2
-1:1
1:22:2
-1:-1
1:5:1
-1:1
3:7:1
0:-1
0:13:1
-1:-1
0:7:1
-1:-1
2:12:1
0:-1
0:5:1
-1:-1
5:9:1
1:1
4:12:2
1:0
0:12:3
-1:0
0:7:2
-1:-1
3:58:1
0:-1
0:14:1
-1:1
0:7:1
-1:1
0:20:1
-1:1
0:9:1
-1:-1
0:6:1
-1:-1
2:16:1
0:-1
0:16:1
-1:-1
3:17:1
0:1
1:9:2
-1:-1
0:6:1
-1:-1
8:21:1
2:-1
0:18:1
-1:-1
0:20:1
-1:1
2:14:1
0:-1
0:20:1
-1:-1
0:11:1
-1:1
2:28:1
0:-1
0:23:1
-1:-1
0:48:1
-1:1
4:18:1
1:-1
0:7:1
-1:-1
0:7:1
-1:-1
0:20:1
-1:-1
0:10:1
-1:-1
0:8:1
-1:-1
0:40:1
-1:1
0:9:1
-1:-1
1:21:1
-1:-1
0:16:1
-1:-1
0:13:1
-1:1
1:5:1
-1:1
8:8:1
2:1
4:11:3
1:0
0:11:4
-1:0
0:11:3
-1:-1
1:8:2
-1:0
0:16:1
-1:1
0:10:1
-1:-1
0:4:1
-1:1
0:3:1
-1:-1
2:0:1
0:-1
0:0:1
-1:-1
0:0:1
-1:-1
0:4:1
-1:-1
0:34:1
-1:-1
2:42:1
0:-1
2:17:1
0:-1
0:15:1
-1:1
0:16:1
-1:-1
0:18:1
-1:-1
0:14:1
-1:-1
6:13:1
1:-1
3:14:1
0:-1
0:18:1
-1:1
2:16:1
0:-1
3:21:1
0:-1
4:13:1
1:-1
0:10:1
-1:-1
2:19:1
0:-1
1:16:1
-1:-1
0:13:1
-1:-1
1:24:1
-1:1
4:17:1
1:-1
0:28:1
-1:-1
4:25:1
1:-1
0:10:1
-1:-1
0:26:1
-1:1
0:10:1
-1:-1
0:12:1
-1:-1
0:4:1
-1:-1
4:9:1
1:-1
0:9:1
-1:-1
0:10:1
-1:-1
0:22:1
-1:-1
0:2:1
-1:-1
2:7:1
0:1
0:10:2
-1:-1
0:5:1
-1:-1
0:4:1
-1:-1
0:8:1
-1:-1
5:6:1
1:-1
0:11:1
-1:-1
2:20:1
0:1
2:6:2
0:-1
6:8:2
1:-1
4:8:2
1:-1
0:2:2
-1:-1
0:3:1
-1:-1
0:5:1
-1:-1
0:5:1
-1:-1
0:5:1
-1:1
1:3:1
-1:-1
1:5:1
-1:-1
0:4:1
-1:-1
0:6:1
-1:1
5:6:1
1:1
3:5:2
0:-1
0:3:2
-1:-1
0:8:1
-1:1
5:5:1
1:-1
2:5:1
0:-1
0:20:1
-1:-1
0:8:1
-1:-1
3:33:1
0:1
0:13:2
-1:0
2:32:1
0:1
0:8:2
-1:1
0:16:2
-1:-1
0:6:1
-1:-1
2:9:1
0:-1
1:5:1
-1:-1
1:10:1
-1:-1
0:2:1
-1:-1
0:11:1
-1:-1
0:5:1
-1:-1
0:16:1
-1:-1
0:10:1
-1:-1
0:3:1
-1:-1
0:7:1
-1:-1
0:4:1
-1:-1
0:12:1
-1:-1
1:9:1
-1:-1
0:6:1
-1:-1
0:9:1
-1:-1
0:31:1
-1:1
1:12:1
-1:-1
5:6:1
1:-1
0:3:1
-1:-1
0:11:1
-1:-1
0:27:1
-1:-1
4:33:1
1:-1
0:7:1
-1:-1
2:16:1
0:-1
1:34:1
-1:-1
0:24:1
-1:-1
0:9:1
-1:1
6:13:1
1:-1
0:9:1
-1:-1
2:22:1
0:-1
0:3:1
-1:-1
0:34:1
-1:-1
0:19:1
-1:-1
0:2:1
-1:-1
1:3:1
-1:-1
0:8:1
-1:-1
4:7:1
1:-1
4:5:1
1:-1
0:1:1
-1:-1
0:3:1
-1:-1
3:8:1
0:-1
0:34:1
-1:-1
0:33:1
-1:-1
0:24:1
-1:-1
1:25:1
-1:-1
0:17:1
-1:-1
0:6:1
-1:-1
1:5:1
-1:-1
1:3:1
-1:-1
1:4:1
-1:-1
0:5:1
-1:-1
5:16:1
1:-1
0:2:1
-1:-1
2:3:1
0:-1
0:2:1
-1:-1
4:5:1
1:-1
0:4:1
-1:-1
0:43:1
-1:-1
2:6:1
0:-1
4:8:1
1:-1
0:6:1
-1:1
0:25:1
-1:-1
2:12:1
0:-1
2:12:1
0:1
0:10:2
-1:-1
1:14:1
-1:-1
0:6:1
-1:-1
0:7:1
-1:-1
4:22:1
1:-1
0:24:1
-1:1
0:16:1
-1:1
1:12:1
-1:-1
0:7:1
-1:-1
0:10:1
-1:1
2:6:1
0:-1
1:8:1
-1:-1
0:9:1
-1:-1
0:9:1
-1:-1
0:11:1
-1:-1
5:6:1
1:-1
0:6:1
-1:1
0:3:1
-1:-1
0:6:1
-1:-1
1:12:1
-1:1
0:24:1
-1:-1
0:28:1
-1:1
6:11:1
1:1
0:7:2
-1:0
0:11:1
-1:-1
4:18:1
1:-1
0:3:1
-1:-1
0:7:1
-1:1
3:40:1
0:1
0:7:2
-1:-1
0:13:1
-1:-1
1:11:1
-1:-1
0:8:1
-1:1
0:24:1
-1:1
2:31:1
0:-1
0:8:1
-1:1
0:26:1
-1:-1
0:17:1
-1:-1
0:39:1
-1:-1
0:11:1
-1:-1
3:25:1
0:-1
0:5:1
-1:-1
0:3:1
-1:-1
5:3:1
1:-1
0:9:1
-1:-1
0:7:1
-1:-1
0:5:1
-1:1
0:1:1
-1:-1
0:1:1
-1:-1
4:4:1
1:-1
0:2:1
-1:-1
0:49:1
-1:-1
4:26:1
1:-1
2:8:1
0:-1
0:34:1
-1:-1
0:21:1
-1:-1
0:5:1
-1:-1
3:15:1
0:-1
2:16:1
0:-1
7:32:1
1:-1
0:11:1
-1:1
2:8:1
0:-1
4:18:1
1:-1
0:10:1
-1:-1
2:8:1
0:-1
0:35:1
-1:-1
3:4:1
0:-1
0:6:1
-1:1
6:17:1
1:-1
0:13:1
-1:-1
0:7:1
-1:-1
0:5:1
-1:-1
5:33:1
1:-1
0:15:1
-1:-1
1:7:1
-1:-1
3:53:1
0:-1
0:9:1
-1:-1
0:28:1
-1:1
0:32:1
-1:-1
1:20:1
-1:-1
0:18:1
-1:-1
7:25:1
1:-1
0:23:1
-1:1
0:8:1
-1:-1
7:16:1
1:-1
0:19:1
-1:-1
0:12:1
-1:1
0:34:1
-1:1
0:17:1
-1:-1
0:5:1
-1:-1
0:10:1
-1:-1
0:20:1
-1:-1
1:9:1
-1:1
0:11:1
-1:1
0:11:1
-1:-1
1:11:1
-1:1
3:10:1
0:1
0:8:2
-1:-1
0:10:1
-1:-1
0:0:1
-1:-1
2:0:1
0:-1
0:3:1
-1:-1
0:9:1
-1:-1
0:50:1
-1:-1
0:14:1
-1:-1
9:16:1
2:-1
0:14:1
-1:-1
3:17:1
0:-1
1:16:1
-1:-1
5:15:1
1:-1
0:18:1
-1:1
1:8:1
-1:-1
8:8:1
2:-1
0:17:1
-1:-1
1:16:1
-1:-1
3:32:1
0:-1
2:21:1
0:1
0:11:2
-1:-1
0:19:1
-1:-1
4:12:1
1:-1
3:28:1
0:-1
0:28:1
-1:1
2:49:1
0:1
0:14:2
-1:0
1:32:1
-1:1
2:32:1
0:-1
0:22:1
-1:-1
0:23:1
-1:-1
2:10:1
0:-1
1:8:1
-1:-1
0:32:1
-1:-1
1:28:1
-1:-1
1:11:1
-1:-1
0:12:1
-1:-1
0:12:1
-1:-1
4:18:1
1:1
0:9:2
-1:-1
0:20:1
-1:1
0:13:1
-1:-1
2:10:1
0:-1
0:12:1
-1:-1
0:18:1
-1:1
0:11:1
-1:1
0:11:1
-1:-1
0:16:1
-1:-1
0:14:1
-1:-1
0:10:1
-1:-1
0:10:1
-1:-1
0:13:1
-1:1
3:12:1
0:-1
3:30:1
0:-1
1:9:1
-1:-1
3:9:1
0:-1
0:6:1
-1:-1
0:22:1
-1:1
2:8:1
0:-1
0:5:1
-1:-1
0:28:1
-1:-1
1:37:1
-1:-1
0:29:1
-1:-1
0:11:1
-1:-1
4:15:1
1:-1
3:19:1
0:-1
0:8:1
-1:-1
4:25:1
1:-1
2:17:1
0:-1
0:10:1
-1:-1
0:45:1
-1:-1
0:14:1
-1:-1
4:8:1
1:1
4:11:2
1:0
2:8:3
0:0
5:9:3
1:0
0:30:4
-1:0
1:26:3
-1:-1
0:6:2
-1:-1
2:6:1
0:-1
3:21:1
0:-1
3:13:1
0:1
0:7:2
-1:1
0:7:2
-1:-1
0:19:1
-1:-1
0:5:1
-1:-1
0:24:1
-1:-1
2:33:1
0:-1
2:19:1
0:-1
7:9:1
1:-1
2:29:1
0:-1
1:22:1
-1:-1
0:33:1
-1:-1
4:17:1
1:-1
0:18:1
-1:-1
1:8:1
-1:-1
3:6:1
0:-1
1:7:1
-1:-1
0:43:1
-1:-1
1:23:1
-1:-1
0:8:1
-1:-1
0:18:1
-1:-1
0:22:1
-1:-1
0:6:1
-1:-1
7:19:1
1:-1
0:22:1
-1:-1
0:29:1
-1:-1
0:31:1
-1:-1
2:17:1
0:-1
0:15:1
-1:1
0:21:1
-1:1
0:15:1
-1:-1
0:37:1
-1:1
0:12:1
-1:-1
5:9:1
1:-1
4:36:1
1:-1
0:20:1
-1:-1
0:14:1
-1:-1
2:21:1
0:-1
1:25:1
-1:-1
0:14:1
-1:-1
3:6:1
0:-1
4:37:1
1:-1
1:38:1
-1:1
0:9:1
-1:-1
5:6:1
1:-1
0:8:1
-1:-1
0:16:1
-1:-1
0:5:1
-1:-1
0:40:1
-1:-1
3:41:1
0:-1
0:5:1
-1:-1
0:20:1
-1:1
2:39:1
0:1
3:25:2
0:0
1:14:2
-1:0
2:36:1
0:-1
1:14:1
-1:-1
0:18:1
-1:-1
0:18:1
-1:-1
0:9:1
-1:-1
1:32:1
-1:-1
0:19:1
-1:-1
1:25:1
-1:-1
0:7:1
-1:1
2:9:1
0:-1
0:10:1
-1:-1
0:12:1
-1:-1
0:31:1
-1:-1
0:7:1
-1:-1
0:27:1
-1:-1
4:25:1
1:-1
0:9:1
-1:-1
0:28:1
-1:-1
1:47:1
-1:-1
0:9:1
-1:-1
0:31:1
-1:-1
0:35:1
-1:-1
0:18:1
-1:-1
0:8:1
-1:-1
0:5:1
-1:-1
1:9:1
-1:1
5:15:1
1:1
0:8:2
-1:-1
0:5:1
-1:-1
0:10:1
-1:-1
1:8:1
-1:1
0:7:1
-1:1
0:2:1
-1:-1
0:1:1
-1:-1
2:0:1
0:-1
0:1:1
-1:-1
0:18:1
-1:-1
0:51:1
-1:-1
1:16:1
-1:-1
7:9:1
1:-1
0:17:1
-1:-1
2:18:1
0:-1
3:16:1
0:-1
1:22:1
-1:1
2:11:1
0:-1
0:15:1
-1:-1
0:19:1
-1:-1
0:25:1
-1:1
0:11:1
-1:-1
2:14:1
0:1
0:13:2
-1:-1
0:20:1
-1:-1
1:17:1
-1:-1
0:24:1
-1:1
0:20:1
-1:-1
0:38:1
-1:1
0:7:1
-1:-1
6:43:1
1:-1
1:26:1
-1:-1
1:15:1
-1:-1
2:14:1
0:-1
0:25:1
-1:-1
0:5:1
-1:-1
0:14:1
-1:-1
2:30:1
0:-1
0:7:1
-1:1
0:9:1
-1:1
4:20:1
1:-1
1:21:1
-1:-1
0:6:1
-1:-1
0:24:1
-1:-1
0:40:1
-1:-1
0:9:1
-1:-1
3:46:1
0:-1
3:20:1
0:-1
0:4:1
-1:1
0:11:1
-1:-1
1:27:1
-1:-1
1:28:1
-1:-1
0:8:1
-1:-1
2:21:1
0:-1
0:29:1
-1:-1
1:17:1
-1:1
2:19:1
0:-1
3:16:1
0:-1
0:23:1
-1:-1
2:30:1
0:-1
0:18:1
-1:-1
0:5:1
-1:-1
8:34:1
2:-1
1:31:1
-1:-1
0:8:1
-1:-1
1:45:1
-1:-1
3:8:1
0:-1
0:27:1
-1:-1
0:10:1
-1:-1
2:26:1
0:-1
0:26:1
-1:-1
1:11:1
-1:1
2:39:1
0:-1
0:11:1
-1:-1
0:13:1
-1:1
2:26:1
0:-1
0:29:1
-1:1
0:9:1
-1:-1
7:12:1
1:-1
0:20:1
-1:-1
0:5:1
-1:-1
1:22:1
-1:-1
2:22:1
0:-1
3:19:1
0:-1
1:12:1
-1:-1
2:20:1
0:-1
0:13:1
-1:-1
1:12:1
-1:1
7:16:1
1:-1
4:16:1
1:-1
0:24:1
-1:-1
0:22:1
-1:-1
4:7:1
1:1
0:8:2
-1:-1
0:5:1
-1:-1
1:9:1
-1:1
2:6:1
0:1
0:9:2
-1:-1
0:9:1
-1:-1
0:9:1
-1:-1
1:11:1
-1:1
0:4:1
-1:-1
0:0:1
-1:-1
2:0:1
0:-1
0:4:1
-1:-1
0:16:1
-1:-1
0:23:1
-1:-1
0:9:1
-1:-1
0:35:1
-1:-1
0:11:1
-1:-1
2:16:1
0:-1
0:9:1
-1:-1
5:19:1
1:-1
0:21:1
-1:1
2:30:1
0:1
1:14:2
-1:-1
0:14:1
-1:-1
0:20:1
-1:-1
5:11:1
1:1
1:24:2
-1:0
3:9:1
0:-1
6:21:1
1:1
0:17:2
-1:0
0:13:1
-1:1
4:31:1
1:-1
0:11:1
-1:-1
0:21:1
-1:-1
0:15:1
-1:-1
0:11:1
-1:-1
4:22:1
1:-1
0:23:1
-1:-1
1:13:1
-1:-1
0:4:1
-1:-1
0:10:1
-1:-1
0:7:1
-1:-1
1:5:1
-1:-1
0:19:1
-1:-1
0:5:1
-1:1
0:12:1
-1:-1
1:17:1
-1:-1
0:7:1
-1:-1
2:8:1
0:-1
0:16:1
-1:1
0:10:1
-1:1
0:14:1
-1:-1
0:29:1
-1:1
0:8:1
-1:-1
2:11:1
0:-1
1:18:1
-1:-1
5:19:1
1:-1
0:4:1
-1:-1
3:17:1
0:1
0:25:2
-1:-1
5:14:1
1:-1
0:3:1
-1:-1
0:7:1
-1:1
0:35:1
-1:-1
0:21:1
-1:-1
0:6:1
-1:-1
5:30:1
1:-1
0:41:1
-1:-1
0:8:1
-1:-1
0:39:1
-1:-1
0:18:1
-1:-1
1:14:1
-1:-1
2:20:1
0:-1
0:10:1
-1:-1
7:13:1
1:1
1:25:2
-1:-1
0:7:1
-1:-1
0:17:1
-1:-1
3:49:1
0:-1
0:49:1
-1:-1
1:30:1
-1:-1
0:6:1
-1:-1
0:2:1
-1:-1
0:3:1
-1:-1
0:9:1
-1:-1
0:16:1
-1:-1
0:19:1
-1:1
0:3:1
-1:-1
2:3:1
0:-1
3:3:1
0:-1
3:4:1
0:-1
0:3:1
-1:-1
0:33:1
-1:-1
1:44:1
-1:-1
0:9:1
-1:-1
1:23:1
-1:-1
2:38:1
0:-1
0:30:1
-1:-1
3:12:1
0:1
8:25:2
2:-1
0:17:2
-1:0
0:16:1
-1:-1
2:17:1
0:-1
0:14:1
-1:-1
2:9:1
0:-1
1:34:1
-1:-1
0:26:1
-1:-1
0:12:1
-1:1
4:12:1
1:-1
1:12:1
-1:-1
0:6:1
-1:-1
6:28:1
1:1
1:31:2
-1:-1
0:8:1
-1:-1
1:10:1
-1:1
2:39:1
0:-1
0:15:1
-1:-1
0:9:1
-1:-1
8:26:1
2:-1
0:16:1
-1:-1

Warmup complete CPU 0 instructions: 1000001 cycles: 816873 (Simulation time: 0 hr 0 min 3 sec) 

1:10:1
-1:-1
0:13:1
-1:-1
0:21:1
-1:-1
2:6:1
0:1
0:2:2
-1:-1
4:0:1
1:-1
2:1:1
0:-1
0:1:1
-1:-1
2:7:1
0:-1
2:2:1
0:1
8:3:2
2:-1
0:1:2
-1:-1
0:1:1
-1:-1
0:3:1
-1:-1
0:11:1
-1:-1
0:5:1
-1:-1
0:0:1
-1:-1
0:3:1
-1:-1
0:2:1
-1:-1
8:1:1
2:-1
0:0:1
-1:-1
0:1:1
-1:-1
2:51:1
0:-1
2:15:1
0:-1
0:2:1
-1:-1
8:1:1
2:-1
0:0:1
-1:-1
0:2:1
-1:-1
1:13:1
-1:-1
0:4:1
-1:1
0:1:1
-1:1
0:1:1
-1:-1
0:1:1
-1:-1
6:2:1
1:-1
0:1:1
-1:-1
0:1:1
-1:-1
0:23:1
-1:-1
2:11:1
0:-1
0:2:1
-1:-1
2:8:1
0:-1
2:2:1
0:-1
3:2:1
0:-1
1:12:1
-1:-1
0:2:1
-1:-1
0:7:1
-1:-1
0:3:1
-1:-1
0:0:1
-1:-1
0:1:1
-1:-1
3:1:1
0:-1
0:2:1
-1:-1
0:0:1
-1:-1
0:2:1
-1:-1
0:1:1
-1:-1
0:19:1
-1:-1
1:3:1
-1:-1
0:1:1
-1:-1
0:3:1
-1:1
0:0:1
-1:-1
0:3:1
-1:-1
1:1:1
-1:-1
0:3:1
-1:-1
0:4:1
-1:-1
0:2:1
-1:-1
0:0:1
-1:-1
0:0:1
-1:-1
0:1:1
-1:-1
0:7:1
-1:-1
0:2:1
-1:-1
0:0:1
-1:-1
2:1:1
0:-1
0:1:1
-1:-1
1:15:1
-1:1
1:1:1
-1:-1
2:3:1
0:-1
0:1:1
-1:-1
3:1:1
0:-1
1:1:1
-1:-1
0:3:1
-1:-1
0:10:1
-1:-1
0:1:1
-1:-1
0:1:1
-1:-1
0:1:1
-1:-1
0:1:1
-1:-1
5:4:1
1:-1
0:1:1
-1:-1
3:0:1
0:-1
1:6:1
-1:-1
0:2:1
-1:-1
0:18:1
-1:1
0:3:1
-1:-1
0:0:1
-1:-1
0:3:1
-1:-1
0:0:1
-1:-1
3:6:1
0:-1
0:3:1
-1:-1
0:1:1
-1:-1
0:2:1
-1:-1
1:7:1
-1:1
2:1:1
0:-1
0:0:1
-1:-1
0:6:1
-1:-1
0:1:1
-1:-1
0:1:1
-1:-1
0:2:1
-1:-1
0:11:1
-1:-1
0:5:1
-1:1
0:4:1
-1:-1
0:0:1
-1:-1
1:2:1
-1:-1
0:1:1
-1:-1
1:6:1
-1:-1
0:1:1
-1:-1
1:1:1
-1:-1
0:3:1
-1:-1
2:19:1
0:-1
0:16:1
-1:1
0:0:1
-1:-1
0:2:1
-1:-1
0:5:1
-1:-1
0:2:1
-1:-1
1:0:1
-1:-1
0:2:1
-1:-1
0:4:1
-1:-1
0:3:1
-1:-1
0:0:1
-1:-1
3:3:1
0:-1
0:1:1
-1:-1
2:1:1
0:-1
1:0:1
-1:-1
0:1:1
-1:-1
0:1:1
-1:-1
0:3:1
-1:1
0:0:1
-1:-1
0:5:1
-1:-1
0:1:1
-1:-1
0:1:1
-1:-1
0:2:1
-1:-1
2:3:1
0:-1
0:16:1
-1:1
0:12:1
-1:1
0:4:1
-1:-1
0:3:1
-1:-1
2:5:1
0:1
1:9:2
-1:-1
2:1:1
0:-1
0:2:1
-1:1
0:3:1
-1:-1
0:8:1
-1:-1
1:1:1
-1:-1
2:1:1
0:-1
0:1:1
-1:-1
0:8:1
-1:1
1:9:1
-1:-1
3:1:1
0:-1
0:1:1
-1:-1
2:17:1
0:-1
3:17:1
0:-1
0:1:1
-1:-1
0:1:1
-1:-1
0:11:1
-1:1
0:5:1
-1:-1
0:2:1
-1:-1
1:3:1
-1:-1
2:7:1
0:-1
2:0:1
0:-1
0:1:1
-1:-1
0:8:1
-1:-1
0:4:1
-1:-1
2:1:1
0:-1
0:2:1
-1:1
0:16:1
-1:1
5:15:1
1:1
6:2:2
1:-1
0:2:2
-1:-1
0:2:1
-1:-1
7:4:1
1:-1
0:2:1
-1:-1
3:1:1
0:-1
0:2:1
-1:-1
0:1:1
-1:-1
0:4:1
-1:1
0:0:1
-1:-1
1:0:1
-1:-1
0:2:1
-1:-1
3:4:1
0:-1
0:2:1
-1:-1
2:12:1
0:1
0:4:2
-1:1
0:5:2
-1:-1
0:5:1
-1:-1
0:0:1
-1:-1
0:2:1
-1:-1
0:3:1
-1:-1
0:1:1
-1:-1
2:0:1
0:-1
0:5:1
-1:-1
0:4:1
-1:-1
3:0:1
0:-1
0:0:1
-1:-1
0:3:1
-1:-1
0:1:1
-1:-1
0:4:1
-1:-1
0:0:1
-1:-1
1:6:1
-1:1
0:0:1
-1:-1
1:0:1
-1:-1
0:4:1
-1:-1
1:2:1
-1:-1
0:0:1
-1:-1
0:7:1
-1:-1
0:1:1
-1:-1
1:2:1
-1:-1
0:2:1
-1:-1
1:0:1
-1:-1
0:3:1
-1:-1
4:6:1
1:-1
4:2:1
1:-1
0:0:1
-1:-1
2:1:1
0:-1
0:2:1
-1:-1
0:19:1
-1:-1
0:4:1
-1:-1
0:2:1
-1:-1
1:2:1
-1:-1
0:1:1
-1:-1
2:6:1
0:-1
0:1:1
-1:-1
0:0:1
-1:-1
0:1:1
-1:-1
0:5:1
-1:-1
0:2:1
-1:-1
0:0:1
-1:-1
0:5:1
-1:-1
0:3:1
-1:-1
1:0:1
-1:-1
0:2:1
-1:-1
1:1:1
-1:-1
0:2:1
-1:-1
0:5:1
-1:-1
0:2:1
-1:-1
1:0:1
-1:-1
0:3:1
-1:-1
1:1:1
-1:1
0:4:1
-1:1
0:5:1
-1:-1
0:1:1
-1:-1
0:1:1
-1:-1
0:1:1
-1:-1
2:2:1
0:1
0:1:2
-1:-1
0:3:1
-1:-1
0:1:1
-1:-1
0:1:1
-1:-1
0:2:1
-1:-1
0:1:1
-1:-1
1:22:1
-1:-1
0:16:1
-1:1
0:4:1
-1:1
0:4:1
-1:-1
0:0:1
-1:-1
1:3:1
-1:-1
0:2:1
-1:-1
0:0:1
-1:-1
2:2:1
0:-1
0:3:1
-1:-1
1:7:1
-1:-1
0:1:1
-1:-1
0:5:1
-1:-1
0:2:1
-1:-1
1:1:1
-1:-1
0:2:1
-1:-1
0:7:1
-1:-1
0:5:1
-1:-1
0:0:1
-1:-1
0:5:1
-1:-1
1:1:1
-1:-1
0:1:1
-1:-1
2:1:1
0:-1
0:1:1
-1:-1
0:11:1
-1:-1
2:17:1
0:1
0:11:2
-1:-1
0:6:1
-1:-1
2:6:1
0:-1
0:1:1
-1:-1
3:3:1
0:1
0:1:2
-1:-1
0:1:1
-1:1
0:1:1
-1:-1
0:1:1
-1:-1
0:1:1
-1:-1
1:1:1
-1:1
3:0:1
0:-1
0:0:1
-1:-1
0:1:1
-1:-1
0:0:1
-1:-1
4:1:1
1:-1
4:1:1
1:-1
0:3:1
-1:-1
0:10:1
-1:1
0:5:1
-1:-1
0:13:1
-1:-1
0:16:1
-1:1
0:3:1
-1:-1
0:2:1
-1:-1
0:2:1
-1:-1
1:8:1
-1:-1
2:1:1
0:-1
0:1:1
-1:-1
3:4:1
0:1
1:8:2
-1:0
2:2:1
0:-1
0:1:1
-1:-1
3:5:1
0:-1
1:5:1
-1:1
3:1:1
0:-1
2:1:1
0:-1
3:2:1
0:1
0:8:2
-1:1
0:0:2
-1:-1
0:1:1
-1:-1
1:3:1
-1:-1
1:8:1
-1:-1
0:0:1
-1:-1
0:1:1
-1:-1
1:8:1
-1:-1
1:8:1
-1:-1
2:0:1
0:-1
0:1:1
-1:-1
0:6:1
-1:-1
1:7:1
-1:-1
0:0:1
-1:-1
0:2:1
-1:-1
0:8:1
-1:1
0:1:1
-1:-1
0:1:1
-1:-1
0:1:1
-1:-1
1:11:1
-1:-1
0:6:1
-1:1
2:1:1
0:-1
0:3:1
-1:-1
0:3:1
-1:-1
0:5:1
-1:-1
0:1:1
-1:1
0:1:1
-1:-1
0:2:1
-1:-1
0:1:1
-1:-1
0:4:1
-1:1
6:5:1
1:1
0:2:2
-1:-1
0:1:1
-1:-1
0:0:1
-1:-1
0:1:1
-1:-1
0:2:1
-1:-1
2:1:1
0:-1
0:3:1
-1:-1
2:21:1
0:-1
0:8:1
-1:1
0:1:1
-1:-1
0:5:1
-1:1
2:3:1
0:-1
0:1:1
-1:-1
0:11:1
-1:1
0:2:1
-1:-1
0:0:1
-1:-1
0:1:1
-1:-1
0:7:1
-1:-1
3:2:1
0:-1
0:1:1
-1:-1
1:3:1
-1:-1
0:6:1
-1:1
2:2:1
0:-1
0:2:1
-1:1
0:19:1
-1:-1
0:28:1
-1:-1
1:3:1
-1:-1
1:6:1
-1:1
2:0:1
0:-1
1:0:1
-1:-1
1:15:1
-1:-1
0:26:1
-1:-1
0:9:1
-1:-1
0:11:1
-1:-1
0:10:1
-1:1
0:11:1
-1:-1
0:8:1
-1:-1
2:13:1
0:-1
0:9:1
-1:-1
0:3:1
-1:-1
0:2:1
-1:-1
0:2:1
-1:-1
0:6:1
-1:-1
1:3:1
-1:1
0:0:1
-1:-1
0:15:1
-1:-1
0:8:1
-1:1
0:2:1
-1:-1
2:0:1
0:-1
8:2:1
2:-1
0:2:1
-1:-1
0:1:1
-1:-1
0:25:1
-1:-1
0:14:1
-1:1
0:0:1
-1:-1
2:3:1
0:-1
3:2:1
0:-1
1:0:1
-1:-1
0:1:1
-1:-1
0:22:1
-1:-1
0:27:1
-1:-1
4:4:1
1:-1
8:1:1
2:-1
0:0:1
-1:-1
0:3:1
-1:-1
0:9:1
-1:-1
0:1:1
-1:1
0:0:1
-1:-1
2:2:1
0:-1
2:2:1
0:-1
1:3:1
-1:-1
0:0:1
-1:-1
0:10:1
-1:-1
0:17:1
-1:-1
0:1:1
-1:1
0:0:1
-1:-1
0:1:1
-1:-1
3:3:1
0:-1
0:1:1
-1:-1
0:2:1
-1:-1
0:12:1
-1:-1
3:10:1
0:-1
0:2:1
-1:-1
0:2:1
-1:-1
0:0:1
-1:-1
2:2:1
0:-1
0:2:1
-1:-1
0:3:1
-1:-1
0:10:1
-1:-1
0:5:1
-1:-1
0:0:1
-1:-1
0:0:1
-1:-1
0:0:1
-1:-1
2:2:1
0:-1
2:3:1
0:-1
0:2:1
-1:-1
0:0:1
-1:-1
0:15:1
-1:-1
0:16:1
-1:-1
2:4:1
0:-1
1:5:1
-1:-1
2:2:1
0:-1
4:3:1
1:-1
0:1:1
-1:-1
0:9:1
-1:-1
0:4:1
-1:-1
0:0:1
-1:-1
1:2:1
-1:-1
0:1:1
-1:-1
5:3:1
1:-1
0:0:1
-1:-1
0:2:1
-1:-1
0:10:1
-1:-1
0:1:1
-1:-1
0:0:1
-1:-1
4:2:1
1:-1
6:1:1
1:-1
2:1:1
0:-1
5:1:1
1:-1
0:22:1
-1:-1
0:4:1
-1:-1
1:0:1
-1:-1
1:2:1
-1:-1
0:0:1
-1:-1
2:2:1
0:-1
2:1:1
0:-1
6:1:1
1:-1
1:13:1
-1:-1
0:25:1
-1:-1
0:4:1
-1:1
0:1:1
-1:-1
0:1:1
-1:-1
0:1:1
-1:-1
0:4:1
-1:-1
0:5:1
-1:1
0:1:1
-1:-1
0:0:1
-1:-1
2:2:1
0:-1
0:2:1
-1:-1
3:2:1
0:-1
0:26:1
-1:-1
1:9:1
-1:1
0:1:1
-1:-1
4:3:1
1:-1
2:1:1
0:-1
0:2:1
-1:-1
0:2:1
-1:-1
0:22:1
-1:-1
0:6:1
-1:-1
0:3:1
-1:-1
1:0:1
-1:-1
4:2:1
1:-1
5:2:1
1:-1
0:1:1
-1:-1
6:2:1
1:-1
0:6:1
-1:-1
0:6:1
-1:1
0:0:1
-1:-1
4:3:1
1:-1
5:1:1
1:1
2:2:2
0:-1
2:1:2
0:-1
0:5:2
-1:-1
0:2:1
-1:1
0:0:1
-1:-1
2:2:1
0:-1
2:3:1
0:-1
0:0:1
-1:-1
0:21:1
-1:-1
0:20:1
-1:1
1:2:1
-1:-1
0:3:1
-1:-1
0:1:1
-1:-1
6:2:1
1:-1
0:1:1
-1:-1
0:6:1
-1:-1
0:1:1
-1:-1
0:24:1
-1:1
0:6:1
-1:-1
0:5:1
-1:-1
0:0:1
-1:-1
2:2:1
0:-1
6:2:1
1:-1
0:4:1
-1:-1
0:1:1
-1:-1
0:5:1
-1:-1
0:4:1
-1:-1
0:2:1
-1:-1
0:0:1
-1:-1
2:3:1
0:-1
8:1:1
2:-1
1:3:1
-1:-1
1:2:1
-1:-1
0:27:1
-1:-1
0:4:1
-1:-1
0:0:1
-1:-1
0:1:1
-1:-1
0:2:1
-1:-1
10:2:1
2:-1
1:1:1
-1:-1
0:0:1
-1:-1
0:13:1
-1:-1
0:4:1
-1:-1
0:1:1
-1:-1
0:2:1
-1:1
0:2:1
-1:-1
8:1:1
2:-1
0:0:1
-1:-1
0:2:1
-1:-1
0:25:1
-1:-1
5:7:1
1:1
3:1:2
0:-1
8:1:2
2:-1
0:1:2
-1:-1
0:2:1
-1:-1
0:7:1
-1:-1
0:10:1
-1:1
0:1:1
-1:-1
0:0:1
-1:-1
2:1:1
0:-1
8:3:1
2:-1
0:2:1
-1:-1
0:1:1
-1:-1
0:8:1
-1:-1
0:9:1
-1:1
0:0:1
-1:-1
2:2:1
0:-1
8:1:1
2:-1
1:3:1
-1:-1
0:2:1
-1:-1
0:21:1
-1:-1
0:1:1
-1:-1
1:2:1
-1:-1
2:2:1
0:-1
8:1:1
2:-1
1:2:1
-1:-1
0:2:1
-1:-1
0:6:1
-1:-1
0:0:1
-1:-1
5:1:1
1:-1
4:2:1
1:-1
8:1:1
2:-1
0:0:1
-1:-1
0:1:1
-1:-1
0:17:1
-1:-1
0:5:1
-1:-1
0:4:1
-1:-1
1:2:1
-1:-1
2:0:1
0:-1
6:4:1
1:-1
2:1:1
0:-1
0:2:1
-1:-1
0:15:1
-1:-1
0:10:1
-1:-1
0:2:1
-1:-1
0:1:1
-1:-1
2:2:1
0:-1
2:2:1
0:-1
0:1:1
-1:-1
0:2:1
-1:-1
0:8:1
-1:-1
0:5:1
-1:-1
0:2:1
-1:-1
0:2:1
-1:-1
0:2:1
-1:-1
0:2:1
-1:-1
0:2:1
-1:-1
0:1:1
-1:-1
0:16:1
-1:1
0:2:1
-1:-1
0:5:1
-1:1
0:2:1
-1:-1
0:0:1
-1:-1
2:5:1
0:-1
0:0:1
-1:-1
0:1:1
-1:-1
0:0:1
-1:-1
2:0:1
0:-1
0:10:1
-1:-1
0:2:1
-1:-1
0:4:1
-1:-1
0:4:1
-1:-1
0:35:1
-1:-1
0:1:1
-1:-1
0:2:1
-1:-1
0:8:1
-1:1
0:1:1
-1:-1
0:4:1
-1:-1
1:1:1
-1:-1
0:6:1
-1:-1
0:2:1
-1:1
0:6:1
-1:-1
0:1:1
-1:-1
0:3:1
-1:1
0:5:1
-1:-1
0:9:1
-1:-1
0:2:1
-1:1
0:4:1
-1:-1
0:1:1
-1:-1
1:3:1
-1:1
0:6:1
-1:-1
1:1:1
-1:1
0:3:1
-1:-1
0:6:1
-1:-1
0:1:1
-1:-1
0:2:1
-1:1
0:6:1
-1:-1
0:4:1
-1:1
0:2:1
-1:1
0:4:1
-1:-1
0:1:1
-1:-1
0:3:1
-1:1
0:7:1
-1:-1
0:2:1
-1:1
0:2:1
-1:1
0:0:1
-1:-1
0:1:1
-1:-1
0:1:1
-1:-1
0:0:1
-1:-1
0:0:1
-1:-1
0:0:1
-1:-1
0:0:1
-1:-1
0:0:1
-1:-1
0:0:1
-1:-1
0:0:1
-1:-1
0:0:1
-1:-1
0:0:1
-1:-1
0:0:1
-1:-1
0:0:1
-1:-1
0:0:1
-1:-1
0:0:1
-1:-1
0:0:1
-1:-1
0:0:1
-1:-1
0:0:1
-1:-1
2:0:1
0:-1
0:0:1
-1:-1
2:0:1
0:-1
0:0:1
-1:-1
0:0:1
-1:-1
2:0:1
0:-1
0:0:1
-1:-1
2:0:1
0:-1
0:0:1
-1:-1
0:0:1
-1:-1
0:0:1
-1:-1
2:2:1
0:-1
3:3:1
0:-1
0:4:1
-1:-1
0:9:1
-1:-1
0:18:1
-1:-1
0:1:1
-1:1
0:7:1
-1:-1
0:2:1
-1:-1
4:4:1
1:-1
0:1:1
-1:-1
0:2:1
-1:-1
0:3:1
-1:-1
0:5:1
-1:-1
0:4:1
-1:1
0:14:1
-1:-1
0:2:1
-1:-1
0:2:1
-1:-1
0:2:1
-1:-1
0:16:1
-1:1
0:12:1
-1:1
0:2:1
-1:-1
3:2:1
0:-1
4:6:1
1:1
2:8:2
0:0
0:3:2
-1:-1
0:10:1
-1:-1
1:6:1
-1:-1
7:3:1
1:-1
3:7:1
0:1
4:7:2
1:1
2:5:3
0:0
5:1:3
1:-1
6:1:3
1:0
0:7:4
-1:0
1:7:3
-1:0
7:1:2
1:-1
4:4:2
1:0
1:10:3
-1:0
0:7:2
-1:-1
5:3:1
1:1
5:2:2
1:0
0:8:3
-1:0
0:7:2
-1:-1
2:3:1
0:-1
0:9:1
-1:1
4:22:1
1:1
5:6:2
1:-1
2:7:2
0:-1
0:3:2
-1:-1
5:3:1
1:-1
0:8:1
-1:1
1:8:1
-1:1
0:2:1
-1:-1
0:3:1
-1:-1
5:16:1
1:1
2:7:2
0:0
9:1:2
2:-1
9:2:2
2:1
0:10:4
-1:0
6:2:3
1:-1
2:5:3
0:0
0:3:3
-1:-1
0:8:2
-1:-1
1:10:1
-1:-1
0:6:1
-1:-1
0:2:1
-1:1
0:13:1
-1:1
4:6:1
1:-1
0:4:1
-1:-1
0:3:1
-1:-1
2:13:1
0:-1
0:6:1
-1:1
0:7:1
-1:-1
0:5:1
-1:-1
0:4:1
-1:-1
0:3:1
-1:-1
0:1:1
-1:-1
0:2:1
-1:1
0:1:1
-1:-1
0:1:1
-1:-1
0:1:1
-1:-1
0:2:1
-1:1
2:0:1
0:-1
0:0:1
-1:-1
0:2:1
-1:-1
0:1:1
-1:1
2:1:1
0:-1
4:4:1
1:-1
4:2:1
1:-1
0:0:1
-1:-1
0:0:1
-1:-1
0:0:1
-1:-1
0:5:1
-1:-1
0:1:1
-1:-1
0:0:1
-1:-1
3:2:1
0:-1
0:1:1
-1:-1
0:3:1
-1:-1
4:3:1
1:-1
0:1:1
-1:-1
0:0:1
-1:-1
0:2:1
-1:-1
0:2:1
-1:-1
0:3:1
-1:-1
0:1:1
-1:-1
0:2:1
-1:-1
1:1:1
-1:-1
0:4:1
-1:-1
0:7:1
-1:-1
0:10:1
-1:1
0:3:1
-1:-1
0:6:1
-1:1
0:24:1
-1:-1
0:3:1
-1:-1
0:0:1
-1:-1
0:0:1
-1:-1
0:3:1
-1:-1
4:2:1
1:-1
0:1:1
-1:-1
2:5:1
0:-1
0:1:1
-1:-1
0:3:1
-1:-1
0:2:1
-1:-1
0:5:1
-1:-1
4:6:1
1:1
0:2:2
-1:-1
4:24:1
1:-1
0:22:1
-1:1
2:2:1
0:-1
2:3:1
0:-1
0:6:1
-1:-1
0:1:1
-1:-1
0:5:1
-1:-1
0:19:1
-1:1
2:2:1
0:-1
3:2:1
0:-1
1:3:1
-1:-1
0:1:1
-1:-1
0:4:1
-1:-1
0:14:1
-1:-1
0:0:1
-1:-1
2:3:1
0:-1
8:2:1
2:-1
2:2:1
0:-1
0:3:1
-1:-1
1:10:1
-1:-1
0:5:1
-1:-1
0:0:1
-1:-1
0:1:1
-1:-1
2:3:1
0:1
7:2:2
1:-1
2:2:2
0:-1
0:1:2
-1:-1
0:18:1
-1:-1
0:5:1
-1:-1
0:0:1
-1:-1
2:3:1
0:-1
4:1:1
1:-1
8:1:1
2:-1
1:3:1
-1:-1
0:1:1
-1:-1
0:13:1
-1:-1
0:3:1
-1:-1
0:0:1
-1:-1
0:2:1
-1:-1
0:2:1
-1:-1
0:3:1
-1:-1
2:1:1
0:-1
0:1:1
-1:-1
0:47:1
-1:-1
2:2:1
0:-1
8:2:1
2:-1
0:0:1
-1:-1
0:2:1
-1:-1
2:16:1
0:-1
0:10:1
-1:-1
0:1:1
-1:-1
2:2:1
0:-1
3:2:1
0:-1
0:0:1
-1:-1
0:2:1
-1:-1
0:19:1
-1:-1
0:6:1
-1:1
0:0:1
-1:-1
0:3:1
-1:-1
0:1:1
-1:-1
0:5:1
-1:-1
0:0:1
-1:-1
0:5:1
-1:-1
6:12:1
1:-1
0:2:1
-1:-1
6:2:1
1:-1
0:0:1
-1:-1
0:1:1
-1:-1
0:16:1
-1:-1
0:7:1
-1:1
0:0:1
-1:-1
0:0:1
-1:-1
2:1:1
0:-1
8:2:1
2:-1
0:2:1
-1:-1
0:2:1
-1:-1
0:23:1
-1:-1
0:2:1
-1:1
0:2:1
-1:-1
4:1:1
1:-1
0:0:1
-1:-1
0:1:1
-1:-1
2:6:1
0:-1
2:2:1
0:1
6:2:2
1:-1
0:1:2
-1:-1
0:1:1
-1:-1
2:4:1
0:-1
0:14:1
-1:-1
0:1:1
-1:-1
0:9:1
-1:-1
2:3:1
0:-1
0:3:1
-1:-1
0:6:1
-1:-1
0:17:1
-1:-1
0:1:1
-1:-1
1:2:1
-1:-1
0:2:1
-1:1
1:2:1
-1:-1
0:1:1
-1:-1
1:1:1
-1:-1
0:1:1
-1:-1
0:2:1
-1:-1
5:4:1
1:-1
0:0:1
-1:-1
2:2:1
0:-1
0:3:1
-1:-1
1:9:1
-1:-1
0:3:1
-1:-1
3:5:1
0:-1
0:1:1
-1:-1
0:0:1
-1:-1
2:0:1
0:-1
0:2:1
-1:-1
0:1:1
-1:-1
1:2:1
-1:-1
0:3:1
-1:-1
0:6:1
-1:-1
0:0:1
-1:-1
0:2:1
-1:-1
0:4:1
-1:-1
2:3:1
0:-1
0:3:1
-1:1
0:5:1
-1:-1
0:1:1
-1:-1
1:1:1
-1:-1
0:2:1
-1:-1
1:4:1
-1:1
0:2:1
-1:1
0:5:1
-1:-1
3:1:1
0:1
1:1:2
-1:-1
0:1:1
-1:-1
1:1:1
-1:1
0:1:1
-1:-1
0:5:1
-1:-1
0:1:1
-1:-1
0:0:1
-1:-1
1:0:1
-1:-1
0:1:1
-1:-1
0:25:1
-1:-1
0:16:1
-1:1
0:1:1
-1:-1
0:1:1
-1:-1
0:2:1
-1:1
0:0:1
-1:-1
2:7:1
0:-1
0:3:1
-1:-1
0:0:1
-1:-1
0:1:1
-1:-1
2:1:1
0:-1
0:3:1
-1:-1
0:1:1
-1:-1
2:5:1
0:1
2:1:2
0:-1
0:2:2
-1:-1
0:2:1
-1:-1
1:1:1
-1:1
0:1:1
-1:-1
1:4:1
-1:-1
0:1:1
-1:-1
1:0:1
-1:-1
0:4:1
-1:-1
0:2:1
-1:-1
0:5:1
-1:-1
0:0:1
-1:-1
2:4:1
0:-1
0:1:1
-1:-1
1:1:1
-1:-1
0:1:1
-1:-1
0:2:1
-1:-1
0:1:1
-1:-1
0:5:1
-1:-1
4:1:1
1:-1
1:3:1
-1:-1
0:2:1
-1:-1
2:4:1
0:1
0:31:2
-1:0
0:4:1
-1:1
2:4:1
0:1
0:1:2
-1:-1
0:5:1
-1:-1
1:8:1
-1:-1
3:2:1
0:-1
0:1:1
-1:-1
2:4:1
0:-1
2:8:1
0:-1
2:1:1
0:-1
0:1:1
-1:-1
2:10:1
0:-1
0:7:1
-1:-1
0:2:1
-1:-1
0:21:1
-1:-1
0:3:1
-1:-1
0:1:1
-1:-1
2:7:1
0:-1
1:6:1
-1:1
3:2:1
0:-1
0:1:1
-1:-1
0:16:1
-1:1
0:6:1
-1:1
0:1:1
-1:-1
0:2:1
-1:1
0:3:1
-1:-1
0:10:1
-1:-1
0:4:1
-1:-1
5:4:1
1:-1
0:1:1
-1:-1
0:2:1
-1:-1
0:7:1
-1:-1
2:12:1
0:-1
0:6:1
-1:-1
6:2:1
1:1
0:1:2
-1:-1
0:16:1
-1:-1
0:4:1
-1:-1
0:1:1
-1:-1
3:5:1
0:-1
0:1:1
-1:-1
0:4:1
-1:-1
5:7:1
1:-1
2:4:1
0:-1
2:2:1
0:1
0:1:2
-1:-1
0:19:1
-1:-1
0:5:1
-1:-1
0:1:1
-1:-1
0:2:1
-1:-1
0:2:1
-1:-1
0:1:1
-1:-1
0:11:1
-1:-1
0:27:1
-1:1
0:0:1
-1:-1
0:0:1
-1:-1
0:4:1
-1:-1
3:20:1
0:-1
0:5:1
-1:-1
0:10:1
-1:-1
3:5:1
0:-1
3:1:1
0:-1
0:3:1
-1:-1
0:1:1
-1:-1
0:1:1
-1:1
0:1:1
-1:-1
0:1:1
-1:-1
0:1:1
-1:-1
0:2:1
-1:1
0:1:1
-1:-1
0:0:1
-1:-1
0:1:1
-1:-1
0:1:1
-1:1
3:1:1
0:-1
0:0:1
-1:-1
0:1:1
-1:-1
0:0:1
-1:-1
0:3:1
-1:-1
0:0:1
-1:-1
0:4:1
-1:-1
0:3:1
-1:-1
0:3:1
-1:-1
2:0:1
0:-1
0:0:1
-1:-1
0:1:1
-1:-1
0:2:1
-1:-1
2:4:1
0:1
0:0:2
-1:-1
0:2:1
-1:-1
0:1:1
-1:1
5:3:1
1:-1
0:2:1
-1:-1
0:2:1
-1:-1
0:1:1
-1:1
0:2:1
-1:-1
0:5:1
-1:-1
0:4:1
-1:1
2:3:1
0:1
0:0:2
-1:-1
0:1:1
-1:-1
0:1:1
-1:-1
0:3:1
-1:1
2:0:1
0:-1
0:1:1
-1:-1
0:1:1
-1:-1
0:3:1
-1:1
0:0:1
-1:-1
0:1:1
-1:-1
0:1:1
-1:-1
0:2:1
-1:1
0:1:1
-1:-1
1:0:1
-1:-1
0:1:1
-1:-1
0:1:1
-1:1
2:1:1
0:-1
0:0:1
-1:-1
0:0:1
-1:-1
2:0:1
0:-1
0:2:1
-1:-1
3:1:1
0:-1
3:1:1
0:-1
0:1:1
-1:-1
0:5:1
-1:-1
0:4:1
-1:-1
0:0:1
-1:-1
0:1:1
-1:-1
0:2:1
-1:-1
0:1:1
-1:-1
0:1:1
-1:-1
5:2:1
1:-1
0:2:1
-1:-1
0:0:1
-1:-1
0:1:1
-1:-1
0:0:1
-1:-1
4:2:1
1:-1
0:1:1
-1:-1
3:1:1
0:-1
4:1:1
1:-1
0:2:1
-1:-1
0:4:1
-1:-1
0:2:1
-1:-1
0:0:1
-1:-1
0:7:1
-1:-1
0:22:1
-1:1
0:4:1
-1:1
0:1:1
-1:-1
0:9:1
-1:-1
2:8:1
0:-1
0:9:1
-1:-1
0:8:1
-1:-1
0:3:1
-1:1
1:6:1
-1:-1
0:7:1
-1:-1
0:0:1
-1:-1
0:3:1
-1:-1
4:2:1
1:-1
8:1:1
2:-1
3:5:1
0:-1
0:3:1
-1:-1
0:3:1
-1:-1
0:1:1
-1:-1
2:2:1
0:-1
0:7:1
-1:1
3:3:1
0:-1
0:0:1
-1:-1
1:22:1
-1:-1
0:23:1
-1:1
0:0:1
-1:-1
0:5:1
-1:-1
0:7:1
-1:-1
0:1:1
-1:-1
0:0:1
-1:-1
0:13:1
-1:-1
0:5:1
-1:-1
0:7:1
-1:-1
0:3:1
-1:-1
0:1:1
-1:-1
4:1:1
1:-1
0:1:1
-1:-1
0:4:1
-1:-1
0:1:1
-1:1
0:0:1
-1:-1
0:1:1
-1:-1
1:2:1
-1:1
0:2:1
-1:-1
0:1:1
-1:1
1:1:1
-1:-1
0:2:1
-1:-1
0:1:1
-1:-1
1:3:1
-1:1
0:0:1
-1:-1
0:3:1
-1:-1
0:1:1
-1:-1
0:2:1
-1:-1
0:0:1
-1:-1
1:1:1
-1:-1
0:1:1
-1:-1
0:1:1
-1:1
0:1:1
-1:-1
0:3:1
-1:-1
0:0:1
-1:-1
1:1:1
-1:-1
0:2:1
-1:-1
2:0:1
0:-1
2:0:1
0:-1
0:1:1
-1:-1
0:1:1
-1:-1
0:0:1
-1:-1
1:1:1
-1:-1
0:1:1
-1:-1
0:0:1
-1:-1
1:1:1
-1:-1
0:0:1
-1:-1
0:4:1
-1:-1
0:2:1
-1:-1
0:0:1
-1:-1
0:0:1
-1:-1
0:0:1
-1:-1
0:0:1
-1:-1
0:0:1
-1:-1
0:0:1
-1:-1
0:0:1
-1:-1
1:0:1
-1:-1
0:1:1
-1:-1
0:0:1
-1:-1
0:0:1
-1:-1
0:0:1
-1:-1
0:0:1
-1:-1
1:1:1
-1:-1
1:0:1
-1:-1
2:0:1
0:-1
0:0:1
-1:-1
0:1:1
-1:-1
0:0:1
-1:-1
0:0:1
-1:-1
0:0:1
-1:-1
0:0:1
-1:-1
0:0:1
-1:-1
0:0:1
-1:-1
0:2:1
-1:-1
0:0:1
-1:-1
0:0:1
-1:-1
2:0:1
0:-1
0:0:1
-1:-1
0:0:1
-1:-1
0:4:1
-1:-1
0:14:1
-1:-1
0:13:1
-1:-1
2:9:1
0:-1
1:19:1
-1:-1
0:5:1
-1:-1
0:5:1
-1:-1
0:2:1
-1:1
2:2:1
0:-1
0:2:1
-1:-1
1:1:1
-1:-1
4:3:1
1:-1
10:2:1
2:-1
0:3:1
-1:-1
0:1:1
-1:-1
0:3:1
-1:-1
2:15:1
0:1
4:4:2
1:-1
0:1:2
-1:-1
2:3:1
0:-1
3:2:1
0:-1
4:2:1
1:-1
6:2:1
1:1
0:4:2
-1:0
0:2:1
-1:1
0:1:1
-1:-1
0:2:1
-1:-1
0:2:1
-1:-1
0:1:1
-1:-1
0:3:1
-1:-1
3:4:1
0:-1
3:4:1
0:-1
2:2:1
0:-1
5:3:1
1:1
6:3:2
1:1
10:2:3
2:-1
9:2:3
2:0
0:5:4
-1:-1
0:3:3
-1:0
0:1:2
-1:-1
4:5:1
1:-1
3:1:1
0:-1
0:2:1
-1:1
0:20:1
-1:1
5:4:1
1:-1
2:2:1
0:-1
0:1:1
-1:-1
0:0:1
-1:-1
2:12:1
0:-1
0:30:1
-1:-1
0:2:1
-1:1
0:0:1
-1:-1
4:2:1
1:-1
3:6:1
0:-1
0:5:1
-1:-1
0:4:1
-1:1
0:14:1
-1:1
0:2:1
-1:1
0:7:1
-1:-1
1:9:1
-1:1
0:2:1
-1:1
0:0:1
-1:-1
0:1:1
-1:-1
2:6:1
0:1
2:2:2
0:-1
0:2:2
-1:-1
0:4:1
-1:-1
0:19:1
-1:-1
0:37:1
-1:1
2:2:1
0:1
6:5:2
1:-1
0:1:2
-1:-1
0:0:1
-1:-1
1:4:1
-1:-1
0:1:1
-1:-1
0:1:1
-1:-1
0:0:1
-1:-1
2:1:1
0:-1
3:1:1
0:-1
5:1:1
1:-1
0:1:1
-1:-1
0:2:1
-1:-1
0:10:1
-1:-1
0:9:1
-1:-1
2:0:1
0:-1
0:0:1
-1:-1
0:0:1
-1:-1
2:2:1
0:-1
8:2:1
2:-1
0:1:1
-1:-1
0:2:1
-1:-1
0:13:1
-1:-1
0:7:1
-1:-1
6:5:1
1:1
0:1:2
-1:-1
0:1:1
-1:-1
0:0:1
-1:-1
0:2:1
-1:-1
0:20:1
-1:-1
0:18:1
-1:1
1:3:1
-1:1
2:2:1
0:-1
8:3:1
2:-1
0:2:1
-1:-1
0:0:1
-1:-1
0:7:1
-1:-1
0:1:1
-1:-1
0:0:1
-1:-1
5:1:1
1:-1
3:2:1
0:-1
6:2:1
1:-1
0:1:1
-1:-1
1:1:1
-1:-1
0:7:1
-1:-1
0:4:1
-1:1
0:0:1
-1:-1
2:3:1
0:-1
3:3:1
0:-1
1:0:1
-1:-1
1:0:1
-1:-1
0:7:1
-1:-1
0:4:1
-1:-1
0:2:1
-1:-1
0:0:1
-1:-1
6:2:1
1:-1
4:0:1
1:-1
8:1:1
2:-1
2:3:1
0:-1
0:2:1
-1:-1
0:10:1
-1:-1
0:19:1
-1:1
0:2:1
-1:-1
0:0:1
-1:-1
1:2:1
-1:-1
2:1:1
0:-1
2:2:1
0:-1
0:1:1
-1:-1
0:0:1
-1:-1
0:8:1
-1:-1
0:7:1
-1:-1
0:4:1
-1:-1
1:2:1
-1:-1
2:2:1
0:-1
7:2:1
1:-1
0:3:1
-1:-1
0:1:1
-1:-1
1:15:1
-1:-1
0:4:1
-1:-1
0:1:1
-1:1
0:0:1
-1:-1
2:2:1
0:-1
2:2:1
0:-1
0:0:1
-1:-1
0:2:1
-1:-1
0:17:1
-1:-1
0:1:1
-1:-1
0:0:1
-1:-1
0:0:1
-1:-1
0:2:1
-1:-1
5:2:1
1:-1
0:2:1
-1:-1
2:3:1
0:1
1:0:2
-1:-1
0:5:1
-1:-1
0:1:1
-1:-1
0:0:1
-1:-1
0:1:1
-1:-1
0:2:1
-1:1
5:2:1
1:-1
0:1:1
-1:-1
0:1:1
-1:-1
0:1:1
-1:-1
0:23:1
-1:-1
0:0:1
-1:-1
0:0:1
-1:-1
0:2:1
-1:-1
5:3:1
1:-1
0:0:1
-1:-1
0:2:1
-1:-1
0:10:1
-1:-1
0:3:1
-1:-1
0:1:1
-1:-1
0:0:1
-1:-1
1:1:1
-1:-1
4:2:1
1:1
0:0:2
-1:-1
6:1:1
1:-1
0:16:1
-1:-1
0:15:1
-1:1
1:1:1
-1:-1
2:2:1
0:-1
0:2:1
-1:-1
0:1:1
-1:-1
0:8:1
-1:-1
0:5:1
-1:-1
0:0:1
-1:-1
0:1:1
-1:-1
0:2:1
-1:1
5:3:1
1:-1
4:1:1
1:-1
4:1:1
1:-1
0:15:1
-1:-1
0:14:1
-1:1
0:2:1
-1:-1
0:0:1
-1:-1
2:3:1
0:-1
4:2:1
1:-1
3:0:1
0:-1
0:12:1
-1:-1
0:2:1
-1:-1
0:0:1
-1:-1
1:1:1
-1:-1
2:1:1
0:-1
0:3:1
-1:-1
2:2:1
0:-1
0:1:1
-1:-1
0:13:1
-1:-1
0:2:1
-1:-1
0:0:1
-1:-1
4:3:1
1:-1
5:2:1
1:1
0:1:2
-1:-1
0:2:1
-1:-1
0:2:1
-1:-1
0:13:1
-1:1
0:4:1
-1:1
0:0:1
-1:-1
0:3:1
-1:-1
0:2:1
-1:-1
4:2:1
1:-1
0:1:1
-1:-1
2:30:1
0:-1
0:13:1
-1:-1
2:1:1
0:-1
2:3:1
0:-1
0:3:1
-1:-1
0:1:1
-1:-1
0:3:1
-1:1
0:0:1
-1:-1
0:0:1
-1:-1
3:1:1
0:-1
2:0:1
0:-1
2:3:1
0:-1
0:2:1
-1:-1
2:26:1
0:-1
0:5:1
-1:1
0:3:1
-1:-1
4:3:1
1:-1
0:3:1
-1:-1
0:5:1
-1:-1
0:3:1
-1:-1
0:17:1
-1:-1
0:4:1
-1:-1
1:2:1
-1:-1
2:2:1
0:-1
8:2:1
2:-1
1:1:1
-1:-1
0:0:1
-1:-1
0:5:1
-1:-1
2:4:1
0:-1
0:2:1
-1:-1
0:1:1
-1:-1
1:1:1
-1:-1
0:2:1
-1:-1
0:19:1
-1:-1
2:2:1
0:1
8:2:2
2:-1
2:4:2
0:0
0:1:2
-1:-1
0:10:1
-1:-1
0:21:1
-1:-1
0:6:1
-1:1
2:2:1
0:1
8:2:2
2:-1
1:2:2
-1:-1
0:1:1
-1:-1
0:22:1
-1:-1
0:6:1
-1:1
1:4:1
-1:-1
2:1:1
0:-1
6:3:1
1:-1
1:2:1
-1:-1
0:0:1
-1:-1
2:20:1
0:-1
1:3:1
-1:1
0:0:1
-1:-1
2:3:1
0:-1
3:1:1
0:-1
0:2:1
-1:-1
0:2:1
-1:-1
0:2:1
-1:-1
0:13:1
-1:-1
0:11:1
-1:-1
0:1:1
-1:-1
2:3:1
0:1
3:3:2
0:0
1:2:2
-1:0
0:0:1
-1:-1
0:7:1
-1:-1
0:13:1
-1:1
0:3:1
-1:-1
0:1:1
-1:-1
2:3:1
0:1
3:3:2
0:0
1:1:2
-1:0
1:1:1
-1:-1
0:20:1
-1:-1
2:11:1
0:-1
0:2:1
-1:-1
8:1:1
2:-1
0:0:1
-1:-1
0:1:1
-1:-1
0:12:1
-1:-1
0:4:1
-1:1
0:4:1
-1:-1
1:3:1
-1:-1
4:4:1
1:-1
6:2:1
1:-1
0:1:1
-1:-1
0:1:1
-1:-1
0:10:1
-1:-1
0:2:1
-1:-1
0:1:1
-1:-1
2:3:1
0:1
8:2:2
2:-1
1:2:2
-1:-1
0:3:1
-1:-1
0:2:1
-1:-1
0:2:1
-1:-1
0:3:1
-1:-1
0:2:1
-1:-1
0:10:1
-1:1
0:0:1
-1:-1
2:0:1
0:-1
0:1:1
-1:-1
0:3:1
-1:1
0:13:1
-1:-1
0:4:1
-1:-1
0:12:1
-1:-1
7:6:1
1:1
0:11:2
-1:1
0:1:2
-1:-1
0:4:1
-1:-1
4:1:1
1:-1
0:5:1
-1:-1
0:0:1
-1:-1
0:1:1
-1:-1
0:1:1
-1:1
0:4:1
-1:-1
0:1:1
-1:-1
0:3:1
-1:1
0:5:1
-1:-1
0:1:1
-1:-1
0:2:1
-1:1
0:4:1
-1:-1
0:1:1
-1:-1
1:2:1
-1:1
0:12:1
-1:-1
0:1:1
-1:-1
0:2:1
-1:1
0:4:1
-1:-1
0:1:1
-1:-1
0:3:1
-1:1
0:6:1
-1:-1
0:1:1
-1:-1
0:2:1
-1:1
0:5:1
-1:-1
0:1:1
-1:-1
0:2:1
-1:1
0:5:1
-1:-1
0:4:1
-1:1
0:2:1
-1:1
0:5:1
-1:-1
0:1:1
-1:-1
1:2:1
-1:1
0:2:1
-1:-1
0:3:1
-1:1
0:0:1
-1:-1
0:0:1
-1:-1
0:0:1
-1:-1
0:0:1
-1:-1
0:0:1
-1:-1
2:0:1
0:-1
0:0:1
-1:-1
0:0:1
-1:-1
0:0:1
-1:-1
0:0:1
-1:-1
2:0:1
0:-1
0:0:1
-1:-1
0:0:1
-1:-1
2:1:1
0:-1
0:0:1
-1:-1
2:0:1
0:-1
0:1:1
-1:-1
0:0:1
-1:-1
0:0:1
-1:-1
0:0:1
-1:-1
0:0:1
-1:-1
0:0:1
-1:-1
0:0:1
-1:-1
0:0:1
-1:-1
0:0:1
-1:-1
0:0:1
-1:-1
0:0:1
-1:-1
0:0:1
-1:-1
1:0:1
-1:-1
0:0:1
-1:-1
1:0:1
-1:-1
1:2:1
-1:-1
0:10:1
-1:1
0:25:1
-1:-1
0:10:1
-1:-1
0:3:1
-1:-1
0:4:1
-1:-1
0:2:1
-1:-1
0:3:1
-1:-1
0:2:1
-1:-1
0:4:1
-1:-1
0:5:1
-1:-1
1:18:1
-1:1
0:9:1
-1:-1
3:12:1
0:-1
3:1:1
0:-1
3:4:1
0:1
4:8:2
1:1
2:8:3
0:0
0:1:3
-1:-1
1:7:2
-1:-1
4:1:1
1:-1
2:8:1
0:1
0:5:2
-1:-1
0:14:1
-1:-1
0:4:1
-1:-1
7:5:1
1:1
7:1:2
1:0
0:7:3
-1:0
0:7:2
-1:-1
0:5:1
-1:1
1:17:1
-1:-1
1:6:1
-1:-1
8:3:1
2:-1
5:3:1
1:1
1:6:2
-1:-1
0:5:1
-1:-1
3:5:1
0:1
3:10:2
0:1
0:8:3
-1:0
0:6:2
-1:-1
0:4:1
-1:1
1:5:1
-1:-1
1:8:1
-1:1
1:7:1
-1:1
6:3:1
1:-1
4:7:1
1:1
0:8:2
-1:0
0:7:1
-1:1
0:5:1
-1:1
0:2:1
-1:1
1:8:1
-1:-1
2:7:1
0:1
0:4:2
-1:-1
0:7:1
-1:-1
2:7:1
0:1
5:4:2
1:0
3:8:3
0:0
0:3:3
-1:-1
2:3:2
0:-1
0:3:2
-1:-1
0:2:1
-1:-1
0:2:1
-1:-1
0:25:1
-1:-1
0:0:1
-1:-1
0:0:1
-1:-1
0:8:1
-1:-1
0:12:1
-1:-1
0:5:1
-1:1
0:6:1
-1:-1
0:3:1
-1:-1
0:1:1
-1:-1
0:1:1
-1:-1
0:1:1
-1:1
2:1:1
0:-1
0:0:1
-1:-1
0:1:1
-1:-1
0:2:1
-1:1
0:1:1
-1:-1
0:4:1
-1:-1
0:1:1
-1:-1
0:1:1
-1:1
0:1:1
-1:-1
2:1:1
0:-1
0:1:1
-1:-1
0:1:1
-1:-1
0:5:1
-1:-1
0:5:1
-1:-1
0:2:1
-1:1
2:4:1
0:1
0:0:2
-1:-1
0:5:1
-1:-1
4:1:1
1:-1
0:2:1
-1:-1
0:0:1
-1:-1
0:1:1
-1:-1
0:2:1
-1:-1
3:7:1
0:1
3:1:2
0:-1
0:2:2
-1:-1
0:1:1
-1:-1
2:1:1
0:-1
0:1:1
-1:-1
0:10:1
-1:-1
0:8:1
-1:1
1:3:1
-1:-1
0:3:1
-1:-1
0:4:1
-1:-1
0:4:1
-1:-1
0:1:1
-1:-1
0:3:1
-1:-1
3:2:1
0:-1
0:0:1
-1:-1
2:0:1
0:-1
0:1:1
-1:-1
0:4:1
-1:-1
3:1:1
0:-1
0:1:1
-1:-1
3:1:1
0:-1
0:0:1
-1:-1
0:2:1
-1:-1
0:1:1
-1:-1
2:4:1
0:-1
0:0:1
-1:-1
0:0:1
-1:-1
0:2:1
-1:-1
0:1:1
-1:-1
0:1:1
-1:-1
0:1:1
-1:-1
0:2:1
-1:1
0:1:1
-1:-1
0:0:1
-1:-1
0:2:1
-1:1
0:2:1
-1:-1
3:1:1
0:-1
3:1:1
0:-1
0:0:1
-1:-1
0:6:1
-1:-1
0:5:1
-1:-1
0:8:1
-1:1
0:1:1
-1:-1
2:2:1
0:-1
0:2:1
-1:-1
0:0:1
-1:-1
0:0:1
-1:-1
0:1:1
-1:1
0:2:1
-1:-1
0:1:1
-1:-1
0:1:1
-1:-1
0:1:1
-1:1
2:1:1
0:-1
0:0:1
-1:-1
0:0:1
-1:-1
0:1:1
-1:-1
0:1:1
-1:-1
0:2:1
-1:-1
0:3:1
-1:-1
0:1:1
-1:1
2:3:1
0:-1
0:2:1
-1:-1
0:2:1
-1:-1
0:6:1
-1:-1
0:6:1
-1:-1
1:9:1
-1:1
0:3:1
-1:-1
0:1:1
-1:-1
0:0:1
-1:-1
0:3:1
-1:-1
2:1:1
0:1
0:3:2
-1:-1
2:1:1
0:-1
0:2:1
-1:1
0:0:1
-1:-1
0:2:1
-1:-1
2:0:1
0:-1
0:1:1
-1:-1
1:1:1
-1:-1
4:4:1
1:-1
0:1:1
-1:-1
1:3:1
-1:-1
0:1:1
-1:-1
0:0:1
-1:-1
0:3:1
-1:-1
0:1:1
-1:-1
3:2:1
0:-1
0:3:1
-1:-1
2:1:1
0:-1
0:1:1
-1:-1
0:1:1
-1:-1
3:2:1
0:1
4:1:2
1:-1
3:1:2
0:-1
0:1:2
-1:-1
0:2:1
-1:-1
0:3:1
-1:-1
0:15:1
-1:-1
0:3:1
-1:-1
0:7:1
-1:1
1:8:1
-1:-1
0:0:1
-1:-1
0:1:1
-1:-1
0:2:1
-1:1
0:1:1
-1:-1
0:2:1
-1:1
3:0:1
0:-1
0:0:1
-1:-1
0:1:1
-1:-1
0:2:1
-1:1
0:2:1
-1:-1
0:0:1
-1:-1
0:2:1
-1:1
0:1:1
-1:-1
0:7:1
-1:-1
0:1:1
-1:-1
0:1:1
-1:1
2:0:1
0:-1
0:1:1
-1:-1
0:1:1
-1:-1
0:2:1
-1:1
3:0:1
0:-1
3:4:1
0:-1
2:1:1
0:-1
0:2:1
-1:-1
0:7:1
-1:-1
0:1:1
-1:-1
0:0:1
-1:-1
0:1:1
-1:-1
4:4:1
1:-1
0:2:1
-1:-1
0:1:1
-1:-1
0:3:1
-1:1
2:1:1
0:-1
0:0:1
-1:-1
1:2:1
-1:-1
0:0:1
-1:-1
0:1:1
-1:-1
0:0:1
-1:-1
0:1:1
-1:-1
0:1:1
-1:-1
4:2:1
1:-1
0:1:1
-1:-1
0:0:1
-1:-1
3:2:1
0:-1
0:3:1
-1:-1
0:4:1
-1:-1
0:7:1
-1:-1
0:0:1
-1:-1
0:0:1
-1:-1
0:4:1
-1:-1
0:1:1
-1:-1
0:6:1
-1:-1
0:2:1
-1:-1
1:0:1
-1:-1
0:4:1
-1:-1
0:2:1
-1:-1
0:5:1
-1:-1
0:2:1
-1:1
1:4:1
-1:1
0:1:1
-1:-1
0:4:1
-1:-1
0:1:1
-1:-1
0:1:1
-1:1
0:1:1
-1:-1
0:1:1
-1:-1
0:0:1
-1:-1
0:0:1
-1:-1
0:0:1
-1:-1
0:3:1
-1:-1
0:0:1
-1:-1
0:0:1
-1:-1
0:2:1
-1:-1
5:1:1
1:-1
0:1:1
-1:-1
0:3:1
-1:-1
0:9:1
-1:-1
0:3:1
-1:-1
2:1:1
0:-1
0:1:1
-1:-1
4:2:1
1:-1
0:1:1
-1:-1
0:0:1
-1:-1
4:3:1
1:-1
0:1:1
-1:-1
0:2:1
-1:1
0:2:1
-1:-1
0:0:1
-1:-1
0:2:1
-1:-1
0:0:1
-1:-1
3:2:1
0:-1
0:1:1
-1:-1
0:20:1
-1:-1
0:21:1
-1:1
0:3:1
-1:1
0:2:1
-1:-1
0:4:1
-1:-1
2:11:1
0:-1
0:11:1
-1:-1
0:6:1
-1:-1
0:5:1
-1:-1
0:3:1
-1:-1
1:2:1
-1:-1
0:1:1
-1:-1
4:2:1
1:-1
2:1:1
0:-1
0:0:1
-1:-1
0:9:1
-1:-1
4:18:1
1:1
0:2:2
-1:1
2:2:2
0:-1
0:3:2
-1:-1
1:17:1
-1:-1
0:1:1
-1:-1
0:3:1
-1:-1
0:0:1
-1:-1
0:0:1
-1:-1
0:1:1
-1:-1
3:2:1
0:-1
4:2:1
1:-1
5:1:1
1:1
0:2:2
-1:-1
6:6:1
1:1
5:1:2
1:0
0:2:3
-1:0
2:2:2
0:-1
0:0:2
-1:-1
1:15:1
-1:-1
0:7:1
-1:-1
0:0:1
-1:-1
1:2:1
-1:-1
2:0:1
0:-1
2:2:1
0:-1
5:2:1
1:-1
0:1:1
-1:-1
0:1:1
-1:-1
0:0:1
-1:-1
4:2:1
1:-1
2:1:1
0:-1
0:3:1
-1:-1
0:2:1
-1:-1
0:12:1
-1:-1
0:11:1
-1:1
0:0:1
-1:-1
4:3:1
1:-1
2:1:1
0:-1
0:2:1
-1:-1
6:1:1
1:-1
0:2:1
-1:-1
0:4:1
-1:-1
0:0:1
-1:-1
0:2:1
-1:-1
5:2:1
1:-1
0:1:1
-1:-1
2:1:1
0:-1
3:24:1
0:-1
0:5:1
-1:1
1:3:1
-1:-1
2:1:1
0:-1
2:3:1
0:-1
5:2:1
1:-1
0:9:1
-1:-1
0:10:1
-1:-1
0:1:1
-1:-1
2:1:1
0:-1
2:3:1
0:-1
0:2:1
-1:-1
0:16:1
-1:-1
0:13:1
-1:1
0:2:1
-1:1
0:0:1
-1:-1
2:2:1
0:-1
0:3:1
-1:-1
0:2:1
-1:-1
0:3:1
-1:-1
0:5:1
-1:-1
0:1:1
-1:-1
0:2:1
-1:-1
5:3:1
1:-1
4:1:1
1:-1
0:1:1
-1:-1
0:8:1
-1:-1
0:1:1
-1:-1
1:1:1
-1:1
0:0:1
-1:-1
0:3:1
-1:-1
2:5:1
0:1
0:7:2
-1:-1
0:2:1
-1:-1
1:15:1
-1:-1
0:6:1
-1:1
1:0:1
-1:-1
1:2:1
-1:-1
2:2:1
0:-1
8:1:1
2:-1
0:1:1
-1:-1
0:1:1
-1:-1
0:13:1
-1:-1
0:5:1
-1:-1
0:3:1
-1:1
0:0:1
-1:-1
6:3:1
1:-1
4:1:1
1:-1
8:1:1
2:-1
1:2:1
-1:-1
0:1:1
-1:-1
0:40:1
-1:-1
0:19:1
-1:1
2:2:1
0:-1
8:1:1
2:-1
1:2:1
-1:-1
0:1:1
-1:-1
1:8:1
-1:-1
0:6:1
-1:-1
0:1:1
-1:-1
2:2:1
0:-1
3:3:1
0:-1
1:1:1
-1:1
0:1:1
-1:-1
0:10:1
-1:-1
0:23:1
-1:1
2:2:1
0:-1
8:1:1
2:-1
1:3:1
-1:-1
0:1:1
-1:-1
0:17:1
-1:-1
1:1:1
-1:-1
0:0:1
-1:-1
6:3:1
1:-1
4:2:1
1:-1
8:1:1
2:-1
0:0:1
-1:-1
0:2:1
-1:-1
0:4:1
-1:-1
0:1:1
-1:1
1:2:1
-1:-1
2:1:1
0:-1
6:4:1
1:-1
0:1:1
-1:-1
0:0:1
-1:-1
0:28:1
-1:-1
0:3:1
-1:1
0:1:1
-1:-1
0:0:1
-1:-1
2:2:1
0:-1
8:2:1
2:-1
1:2:1
-1:-1
0:1:1
-1:-1
0:2:1
-1:-1
0:0:1
-1:-1
6:2:1
1:-1
4:1:1
1:-1
8:1:1
2:-1
0:1:1
-1:-1
0:2:1
-1:-1
1:21:1
-1:-1
1:2:1
-1:-1
0:0:1
-1:-1
0:2:1
-1:-1
4:1:1
1:-1
8:1:1
2:-1
1:3:1
-1:-1
0:2:1
-1:-1
0:5:1
-1:-1
0:0:1
-1:-1
0:1:1
-1:-1
5:1:1
1:-1
0:1:1
-1:-1
0:1:1
-1:-1
0:2:1
-1:-1
0:1:1
-1:-1
0:12:1
-1:-1
0:2:1
-1:-1
0:2:1
-1:-1
0:0:1
-1:-1
0:0:1
-1:-1
2:2:1
0:-1
7:3:1
1:-1
0:0:1
-1:-1
0:2:1
-1:-1
0:6:1
-1:-1
0:5:1
-1:-1
0:3:1
-1:1
1:2:1
-1:-1
2:1:1
0:-1
6:4:1
1:-1
0:1:1
-1:-1
0:2:1
-1:-1
0:16:1
-1:-1
0:2:1
-1:-1
2:1:1
0:-1
2:2:1
0:-1
0:1:1
-1:-1
0:2:1
-1:-1
0:54:1
-1:-1
2:3:1
0:-1
8:1:1
2:-1
1:1:1
-1:-1
0:1:1
-1:-1
0:19:1
-1:-1
2:2:1
0:-1
2:2:1
0:-1
0:2:1
-1:-1
0:8:1
-1:1
0:14:1
-1:1
0:0:1
-1:-1
0:2:1
-1:-1
0:0:1
-1:-1
0:15:1
-1:-1
0:3:1
-1:-1
0:2:1
-1:-1
0:8:1
-1:-1
0:12:1
-1:-1
0:1:1
-1:-1
0:4:1
-1:-1
1:1:1
-1:-1
0:5:1
-1:-1
0:0:1
-1:-1
0:5:1
-1:-1
0:0:1
-1:-1
0:0:1
-1:-1
0:5:1
-1:-1
0:2:1
-1:-1
1:1:1
-1:-1
0:5:1
-1:-1
0:1:1
-1:-1
1:1:1
-1:-1
0:10:1
-1:-1
0:1:1
-1:-1
0:2:1
-1:1
0:4:1
-1:-1
0:1:1
-1:-1
0:2:1
-1:1
0:5:1
-1:-1
0:2:1
-1:1
1:2:1
-1:1
0:5:1
-1:-1
0:1:1
-1:-1
0:2:1
-1:1
0:4:1
-1:-1
0:4:1
-1:1
0:2:1
-1:1
0:5:1
-1:-1
0:1:1
-1:-1
0:2:1
-1:1
3:1:1
0:-1
0:6:1
-1:1
0:3:1
-1:-1
0:0:1
-1:-1
0:0:1
-1:-1
0:0:1
-1:-1
0:0:1
-1:-1
0:0:1
-1:-1
0:0:1
-1:-1
1:0:1
-1:-1
0:0:1
-1:-1
0:0:1
-1:-1
0:0:1
-1:-1
0:0:1
-1:-1
0:0:1
-1:-1
0:0:1
-1:-1
2:0:1
0:-1
0:0:1
-1:-1
0:1:1
-1:-1
0:0:1
-1:-1
0:0:1
-1:-1
2:0:1
0:-1
0:0:1
-1:-1
0:0:1
-1:-1
0:1:1
-1:-1
0:2:1
-1:-1
0:0:1
-1:-1
0:0:1
-1:-1
0:1:1
-1:-1
0:0:1
-1:-1
2:0:1
0:-1
0:0:1
-1:-1
0:0:1
-1:-1
0:0:1
-1:-1
0:7:1
-1:-1
0:7:1
-1:-1
0:13:1
-1:-1
3:8:1
0:-1
0:4:1
-1:1
0:2:1
-1:-1
3:3:1
0:-1
0:3:1
-1:-1
0:6:1
-1:1
0:3:1
-1:-1
1:4:1
-1:1
0:18:1
-1:1
2:6:1
0:1
0:11:2
-1:-1
4:5:1
1:-1
5:9:1
1:1
2:7:2
0:0
1:2:2
-1:-1
2:9:1
0:-1
1:7:1
-1:-1
0:3:1
-1:-1
2:10:1
0:-1
4:11:1
1:1
2:5:2
0:-1
3:2:2
0:-1
4:1:2
1:-1
1:6:2
-1:0
0:7:1
-1:-1
0:3:1
-1:1
2:4:1
0:1
0:10:2
-1:1
0:4:2
-1:-1
6:6:1
1:1
3:3:2
0:0
0:8:2
-1:-1
0:5:1
-1:-1
3:3:1
0:1
0:21:2
-1:-1
1:12:1
-1:-1
1:7:1
-1:1
0:3:1
-1:-1
4:10:1
1:-1
0:4:1
-1:-1
0:7:1
-1:-1
0:4:1
-1:-1
0:8:1
-1:-1
4:9:1
1:-1
0:8:1
-1:1
0:2:1
-1:-1
1:9:1
-1:-1
0:5:1
-1:1
0:6:1
-1:1
2:9:1
0:-1
5:9:1
1:1
2:6:2
0:0
0:3:2
-1:-1
2:2:1
0:-1
7:9:1
1:1
2:8:2
0:0
0:1:2
-1:0
0:1:1
-1:-1
2:5:1
0:-1
0:9:1
-1:-1
0:9:1
-1:1
4:8:1
1:1
0:2:2
-1:-1
2:1:1
0:1
0:1:2
-1:-1
0:1:1
-1:1
0:0:1
-1:-1
0:5:1
-1:-1
0:2:1
-1:-1
0:2:1
-1:1
0:2:1
-1:-1
0:1:1
-1:-1
0:1:1
-1:-1
1:1:1
-1:1
0:2:1
-1:-1
1:4:1
-1:-1
0:0:1
-1:-1
0:0:1
-1:-1
0:1:1
-1:-1
0:2:1
-1:-1
0:7:1
-1:-1
0:3:1
-1:1
0:0:1
-1:-1
0:1:1
-1:-1
0:2:1
-1:-1
0:3:1
-1:-1
0:1:1
-1:-1
0:0:1
-1:-1
0:2:1
-1:-1
3:2:1
0:-1
3:1:1
0:-1
0:2:1
-1:-1
0:3:1
-1:-1
4:2:1
1:-1
0:0:1
-1:-1
0:2:1
-1:-1
0:2:1
-1:-1
0:1:1
-1:-1
0:4:1
-1:-1
0:2:1
-1:-1
1:0:1
-1:-1
0:3:1
-1:-1
0:6:1
-1:-1
4:3:1
1:-1
0:0:1
-1:-1
0:5:1
-1:-1
0:2:1
-1:-1
0:0:1
-1:-1
0:1:1
-1:-1
0:2:1
-1:-1
1:4:1
-1:-1
0:2:1
-1:-1
0:4:1
-1:-1
0:0:1
-1:-1
0:0:1
-1:-1
0:1:1
-1:-1
2:2:1
0:1
0:3:2
-1:-1
0:1:1
-1:-1
2:3:1
0:1
3:0:2
0:-1
1:0:2
-1:-1
0:2:1
-1:-1
2:2:1
0:1
0:0:2
-1:-1
0:6:1
-1:-1
0:1:1
-1:-1
0:0:1
-1:-1
2:1:1
0:-1
0:2:1
-1:-1
0:18:1
-1:-1
2:9:1
0:-1
0:3:1
-1:1
0:0:1
-1:-1
4:2:1
1:-1
0:1:1
-1:-1
2:6:1
0:-1
0:1:1
-1:-1
0:7:1
-1:-1
0:0:1
-1:-1
0:1:1
-1:-1
0:3:1
-1:-1
0:0:1
-1:-1
1:4:1
-1:-1
0:1:1
-1:-1
0:0:1
-1:-1
0:3:1
-1:-1
0:14:1
-1:-1
0:1:1
-1:-1
0:1:1
-1:-1
0:2:1
-1:1
0:0:1
-1:-1
0:4:1
-1:-1
0:2:1
-1:1
0:1:1
-1:-1
3:1:1
0:-1
0:1:1
-1:-1
1:9:1
-1:-1
0:1:1
-1:-1
0:0:1
-1:-1
3:5:1
0:-1
0:2:1
-1:-1
1:1:1
-1:-1
0:3:1
-1:-1
1:9:1
-1:-1
0:1:1
-1:-1
0:6:1
-1:-1
3:0:1
0:-1
1:0:1
-1:-1
0:2:1
-1:-1
0:4:1
-1:-1
0:3:1
-1:-1
0:0:1
-1:-1
1:5:1
-1:-1
2:1:1
0:-1
0:0:1
-1:-1
2:2:1
0:-1
0:3:1
-1:-1
2:2:1
0:1
0:1:2
-1:-1
0:4:1
-1:-1
0:1:1
-1:-1
0:0:1
-1:-1
0:2:1
-1:-1
1:1:1
-1:1
0:2:1
-1:-1
0:3:1
-1:-1
0:1:1
-1:-1
0:0:1
-1:-1
0:4:1
-1:-1
3:4:1
0:-1
0:26:1
-1:1
2:3:1
0:-1
0:1:1
-1:-1
0:2:1
-1:-1
2:8:1
0:-1
2:1:1
0:-1
0:2:1
-1:-1
2:3:1
0:1
0:7:2
-1:1
2:1:2
0:-1
0:1:2
-1:-1
0:9:1
-1:-1
0:8:1
-1:-1
0:1:1
-1:-1
2:3:1
0:-1
0:6:1
-1:-1
3:2:1
0:-1
0:1:1
-1:-1
2:15:1
0:-1
0:15:1
-1:-1
0:5:1
-1:-1
0:2:1
-1:-1
0:6:1
-1:-1
0:2:1
-1:-1
0:2:1
-1:-1
0:2:1
-1:-1
1:5:1
-1:-1
2:0:1
0:-1
2:1:1
0:-1
3:22:1
0:-1
4:7:1
1:-1
0:2:1
-1:-1
0:10:1
-1:-1
0:2:1
-1:1
0:2:1
-1:-1
2:5:1
0:-1
0:10:1
-1:-1
6:1:1
1:-1
0:2:1
-1:-1
0:5:1
-1:-1
3:5:1
0:-1
0:0:1
-1:-1
0:3:1
-1:-1
0:1:1
-1:-1
0:2:1
-1:-1
0:2:1
-1:-1
2:10:1
0:-1
0:22:1
-1:-1
0:3:1
-1:-1
0:0:1
-1:-1
4:3:1
1:-1
0:10:1
-1:-1
0:3:1
-1:-1
0:5:1
-1:1
0:2:1
-1:-1
0:3:1
-1:-1
0:2:1
-1:1
0:1:1
-1:-1
0:9:1
-1:-1
0:3:1
-1:-1
0:0:1
-1:-1
0:0:1
-1:-1
3:17:1
0:-1
0:11:1
-1:1
1:1:1
-1:-1
0:0:1
-1:-1
0:2:1
-1:-1
0:0:1
-1:-1
0:3:1
-1:-1
2:2:1
0:-1
0:2:1
-1:1
0:1:1
-1:1
0:1:1
-1:-1
2:2:1
0:-1
0:7:1
-1:1
4:2:1
1:-1
2:3:1
0:-1
0:2:1
-1:-1
1:1:1
-1:1
0:0:1
-1:-1
0:1:1
-1:-1
0:0:1
-1:-1
0:0:1
-1:-1
0:2:1
-1:-1
0:1:1
-1:-1
0:0:1
-1:-1
0:0:1
-1:-1
0:0:1
-1:-1
3:0:1
0:-1
0:0:1
-1:-1
0:0:1
-1:-1
2:2:1
0:-1
0:2:1
-1:-1
0:2:1
-1:-1
0:1:1
-1:-1
1:5:1
-1:-1
0:1:1
-1:-1
0:1:1
-1:-1
0:0:1
-1:-1
0:2:1
-1:-1
0:2:1
-1:-1
0:0:1
-1:-1
3:2:1
0:-1
0:2:1
-1:-1
2:4:1
0:-1
0:4:1
-1:-1
0:0:1
-1:-1
4:3:1
1:-1
1:1:1
-1:-1
0:0:1
-1:-1
0:2:1
-1:-1
0:1:1
-1:-1
0:1:1
-1:-1
0:0:1
-1:-1
0:0:1
-1:-1
0:1:1
-1:-1
3:0:1
0:-1
0:3:1
-1:-1
0:0:1
-1:-1
0:1:1
-1:-1
4:2:1
1:-1
0:2:1
-1:-1
0:0:1
-1:-1
0:1:1
-1:-1
4:2:1
1:-1
0:0:1
-1:-1
0:0:1
-1:-1
0:0:1
-1:-1
0:0:1
-1:-1
0:0:1
-1:-1
0:0:1
-1:-1
0:1:1
-1:-1
0:0:1
-1:-1
0:1:1
-1:-1
0:2:1
-1:-1
0:3:1
-1:-1
0:3:1
-1:-1
0:0:1
-1:-1
0:1:1
-1:-1
3:2:1
0:-1
2:2:1
0:-1
0:0:1
-1:-1
0:0:1
-1:-1
4:3:1
1:-1
0:3:1
-1:-1
0:0:1
-1:-1
4:2:1
1:-1
0:1:1
-1:-1
0:1:1
-1:-1
0:0:1
-1:-1
0:2:1
-1:-1
2:3:1
0:-1
2:1:1
0:-1
0:3:1
-1:-1
2:3:1
0:-1
2:1:1
0:-1
0:3:1
-1:-1
0:26:1
-1:1
0:6:1
-1:1
0:3:1
-1:1
2:2:1
0:-1
0:3:1
-1:1
0:2:1
-1:-1
1:0:1
-1:-1
0:2:1
-1:-1
5:2:1
1:-1
0:4:1
-1:-1
3:1:1
0:-1
0:0:1
-1:-1
0:9:1
-1:-1
0:11:1
-1:-1
0:0:1
-1:-1
0:2:1
-1:-1
0:0:1
-1:-1
0:0:1
-1:-1
1:8:1
-1:-1
1:4:1
-1:-1
0:0:1
-1:-1
0:1:1
-1:-1
0:0:1
-1:-1
1:0:1
-1:-1
0:7:1
-1:-1
0:1:1
-1:-1
0:1:1
-1:1
0:0:1
-1:-1
2:0:1
0:-1
0:0:1
-1:-1
0:0:1
-1:-1
0:0:1
-1:-1
0:0:1
-1:-1
2:0:1
0:-1
0:0:1
-1:-1
0:0:1
-1:-1
0:0:1
-1:-1
0:0:1
-1:-1
0:0:1
-1:-1
0:0:1
-1:-1
0:0:1
-1:-1
2:0:1
0:-1
0:0:1
-1:-1
0:0:1
-1:-1
2:0:1
0:-1
0:0:1
-1:-1
0:0:1
-1:-1
0:0:1
-1:-1
0:0:1
-1:-1
0:0:1
-1:-1
0:0:1
-1:-1
0:0:1
-1:-1
0:0:1
-1:-1
0:0:1
-1:-1
0:0:1
-1:-1
0:0:1
-1:-1
0:0:1
-1:-1
0:0:1
-1:-1
0:4:1
-1:-1
0:10:1
-1:1
0:2:1
-1:-1
1:3:1
-1:-1
0:7:1
-1:-1
0:0:1
-1:-1
0:15:1
-1:-1
0:16:1
-1:-1
0:1:1
-1:-1
0:0:1
-1:-1
0:4:1
-1:-1
0:8:1
-1:-1
2:5:1
0:-1
1:3:1
-1:1
0:3:1
-1:-1
0:2:1
-1:1
0:1:1
-1:-1
2:1:1
0:-1
0:6:1
-1:1
2:2:1
0:-1
0:3:1
-1:1
0:3:1
-1:-1
0:0:1
-1:-1
0:0:1
-1:-1
0:2:1
-1:-1
0:1:1
-1:-1
0:0:1
-1:-1
0:0:1
-1:-1
2:0:1
0:-1
0:3:1
-1:-1
0:0:1
-1:-1
0:0:1
-1:-1
0:0:1
-1:-1
0:5:1
-1:-1
0:0:1
-1:-1
0:0:1
-1:-1
3:2:1
0:-1
0:1:1
-1:-1
0:2:1
-1:-1
0:4:1
-1:-1
0:5:1
-1:1
0:8:1
-1:-1
2:4:1
0:1
0:1:2
-1:-1
0:0:1
-1:-1
0:2:1
-1:-1
4:1:1
1:-1
0:2:1
-1:-1
2:4:1
0:-1
0:1:1
-1:-1
0:1:1
-1:-1
0:0:1
-1:-1
0:1:1
-1:-1
0:4:1
-1:1
0:2:1
-1:-1
0:1:1
-1:-1
0:0:1
-1:-1
0:1:1
-1:-1
2:1:1
0:-1
0:1:1
-1:-1
0:1:1
-1:-1
0:0:1
-1:-1
0:0:1
-1:-1
2:0:1
0:-1
0:3:1
-1:-1
0:0:1
-1:-1
0:1:1
-1:-1
4:0:1
1:-1
0:2:1
-1:-1
0:0:1
-1:-1
0:1:1
-1:-1
0:1:1
-1:-1
0:2:1
-1:-1
0:0:1
-1:-1
0:0:1
-1:-1
3:0:1
0:-1
0:0:1
-1:-1
0:0:1
-1:-1
0:1:1
-1:-1
3:0:1
0:-1
0:2:1
-1:-1
3:0:1
0:-1
0:1:1
-1:-1
0:2:1
-1:-1
0:1:1
-1:-1
0:6:1
-1:-1
2:1:1
0:-1
0:3:1
-1:-1
0:1:1
-1:1
4:6:1
1:1
0:3:2
-1:-1
0:0:1
-1:-1
0:2:1
-1:-1
0:2:1
-1:-1
0:3:1
-1:-1
0:2:1
-1:-1
0:0:1
-1:-1
2:3:1
0:-1
0:3:1
-1:-1
0:1:1
-1:-1
4:3:1
1:1
0:2:2
-1:-1
0:4:1
-1:-1
0:1:1
-1:-1
0:0:1
-1:-1
0:14:1
-1:-1
0:18:1
-1:1
1:6:1
-1:-1
2:12:1
0:1
0:4:2
-1:-1
1:7:1
-1:-1
0:1:1
-1:-1
0:0:1
-1:-1
0:5:1
-1:-1
0:5:1
-1:-1
8:3:1
2:-1
0:5:1
-1:-1
0:2:1
-1:-1
0:2:1
-1:-1
0:2:1
-1:-1
0:6:1
-1:-1
0:1:1
-1:-1
0:7:1
-1:-1
0:2:1
-1:-1
2:2:1
0:-1
1:0:1
-1:-1
0:2:1
-1:-1
2:5:1
0:1
0:2:2
-1:-1
0:5:1
-1:-1
0:0:1
-1:-1
0:1:1
-1:-1
1:0:1
-1:-1
0:3:1
-1:-1
4:19:1
1:1
0:1:2
-1:-1
2:2:1
0:-1
6:3:1
1:-1
4:1:1
1:-1
0:1:1
-1:-1
0:2:1
-1:-1
2:14:1
0:-1
0:13:1
-1:-1
0:0:1
-1:-1
0:3:1
-1:-1
0:2:1
-1:-1
0:4:1
-1:-1
0:2:1
-1:-1
1:6:1
-1:-1
0:2:1
-1:1
0:3:1
-1:-1
0:4:1
-1:1
0:0:1
-1:-1
0:0:1
-1:-1
0:5:1
-1:-1
0:5:1
-1:-1
0:1:1
-1:-1
0:5:1
-1:1
2:2:1
0:-1
1:1:1
-1:1
0:2:1
-1:-1
0:2:1
-1:-1
0:4:1
-1:-1
5:3:1
1:-1
0:1:1
-1:-1
0:1:1
-1:-1
0:3:1
-1:-1
2:3:1
0:1
0:4:2
-1:0
1:4:1
-1:1
0:1:1
-1:-1
0:1:1
-1:-1
0:0:1
-1:-1
2:1:1
0:-1
0:2:1
-1:1
0:0:1
-1:-1
2:3:1
0:-1
0:3:1
-1:-1
1:3:1
-1:-1
0:2:1
-1:-1
0:3:1
-1:-1
0:5:1
-1:-1
0:1:1
-1:-1
0:5:1
-1:1
0:1:1
-1:-1
1:0:1
-1:-1
0:1:1
-1:-1
1:0:1
-1:-1
0:5:1
-1:1
4:4:1
1:-1
0:1:1
-1:-1
0:2:1
-1:-1
0:2:1
-1:-1
1:3:1
-1:-1
1:1:1
-1:-1
0:1:1
-1:-1
0:3:1
-1:-1
0:4:1
-1:-1
0:1:1
-1:-1
2:1:1
0:-1
0:0:1
-1:-1
0:3:1
-1:-1
0:15:1
-1:1
0:4:1
-1:-1
0:11:1
-1:1
0:4:1
-1:-1
0:15:1
-1:1
2:6:1
0:1
0:1:2
-1:-1
3:5:1
0:-1
8:9:1
2:1
5:1:3
1:-1
7:3:3
1:0
1:4:4
-1:-1
3:1:3
0:-1
0:2:3
-1:-1
2:8:2
0:-1
1:5:2
-1:0
2:2:1
0:-1
0:1:1
-1:-1
3:3:1
0:1
0:5:2
-1:1
8:2:2
2:-1
0:2:2
-1:-1
1:4:1
-1:-1
0:4:1
-1:-1
6:2:1
1:-1
2:1:1
0:-1
0:3:1
-1:-1
0:4:1
-1:-1
0:0:1
-1:-1
1:3:1
-1:-1
2:3:1
0:1
0:1:2
-1:-1
0:11:1
-1:-1
0:4:1
-1:-1
0:1:1
-1:-1
0:0:1
-1:-1
0:5:1
-1:-1
2:1:1
0:-1
0:0:1
-1:-1
0:5:1
-1:-1
0:3:1
-1:-1
0:0:1
-1:-1
3:1:1
0:-1
0:2:1
-1:-1
2:1:1
0:-1
0:1:1
-1:-1
0:14:1
-1:-1
0:22:1
-1:1
0:6:1
-1:1
0:2:1
-1:-1
0:2:1
-1:-1
0:1:1
-1:-1
2:0:1
0:-1
2:1:1
0:-1
5:6:1
1:-1
1:1:1
-1:-1
2:2:1
0:-1
0:1:1
-1:-1
0:25:1
-1:-1
0:8:1
-1:1
0:0:1
-1:-1
0:0:1
-1:-1
1:2:1
-1:-1
7:6:1
1:-1
0:4:1
-1:-1
0:9:1
-1:-1
2:12:1
0:1
0:3:2
-1:0
0:0:1
-1:-1
0:1:1
-1:-1
0:14:1
-1:-1
0:10:1
-1:-1
0:8:1
-1:1
0:14:1
-1:-1
0:2:1
-1:1
0:14:1
-1:-1
0:8:1
-1:-1
0:0:1
-1:-1
2:3:1
0:-1
5:3:1
1:1
4:3:2
1:1
6:1:3
1:0
0:11:4
-1:-1
0:0:3
-1:-1
0:0:2
-1:-1
0:1:1
-1:-1
2:3:1
0:1
0:2:2
-1:-1
0:2:1
-1:-1
3:18:1
0:-1
0:7:1
-1:-1
0:1:1
-1:-1
0:0:1
-1:-1
2:1:1
0:-1
2:3:1
0:-1
5:1:1
1:-1
0:15:1
-1:-1
0:5:1
-1:-1
0:1:1
-1:-1
0:0:1
-1:-1
0:1:1
-1:-1
0:2:1
-1:-1
0:1:1
-1:-1
0:3:1
-1:-1
0:24:1
-1:-1
4:24:1
1:-1
2:1:1
0:-1
0:2:1
-1:-1
0:2:1
-1:-1
0:7:1
-1:1
0:1:1
-1:-1
0:0:1
-1:-1
0:0:1
-1:-1
1:1:1
-1:-1
0:1:1
-1:-1
0:3:1
-1:-1
5:2:1
1:-1
1:14:1
-1:-1
0:0:1
-1:-1
0:0:1
-1:-1
4:2:1
1:-1
0:2:1
-1:-1
0:1:1
-1:-1
0:2:1
-1:-1
0:8:1
-1:-1
0:2:1
-1:-1
0:1:1
-1:-1
0:0:1
-1:-1
0:1:1
-1:-1
3:3:1
0:-1
0:0:1
-1:-1
0:1:1
-1:-1
0:10:1
-1:-1
3:13:1
0:-1
0:2:1
-1:-1
0:0:1
-1:-1
3:3:1
0:-1
0:3:1
-1:-1
0:1:1
-1:-1
0:15:1
-1:-1
0:11:1
-1:1
0:2:1
-1:1
4:2:1
1:-1
5:0:1
1:-1
2:3:1
0:-1
6:1:1
1:-1
0:20:1
-1:-1
0:4:1
-1:1
0:0:1
-1:-1
2:2:1
0:-1
2:3:1
0:-1
0:2:1
-1:-1
0:8:1
-1:-1
0:6:1
-1:-1
0:0:1
-1:-1
0:0:1
-1:-1
2:3:1
0:-1
0:3:1
-1:-1
0:4:1
-1:-1
0:2:1
-1:-1
0:24:1
-1:-1
0:11:1
-1:-1
0:2:1
-1:1
1:2:1
-1:-1
2:1:1
0:-1
8:2:1
2:-1
1:2:1
-1:-1
0:1:1
-1:-1
0:45:1
-1:-1
2:11:1
0:1
4:1:2
1:-1
8:1:2
2:-1
0:0:2
-1:-1
0:2:1
-1:-1
0:7:1
-1:-1
0:6:1
-1:-1
0:1:1
-1:-1
0:0:1
-1:-1
2:2:1
0:-1
8:1:1
2:-1
1:3:1
-1:-1
0:2:1
-1:-1
0:18:1
-1:1
0:5:1
-1:1
0:2:1
-1:-1
8:3:1
2:-1
0:0:1
-1:-1
0:2:1
-1:-1
0:21:1
-1:-1
0:5:1
-1:-1
0:1:1
-1:-1
0:0:1
-1:-1
2:3:1
0:-1
3:3:1
0:-1
2:1:1
0:-1
0:1:1
-1:-1
0:8:1
-1:-1
0:16:1
-1:-1
2:5:1
0:-1
0:1:1
-1:-1
4:0:1
1:-1
0:1:1
-1:-1
0:2:1
-1:-1
0:13:1
-1:-1
0:12:1
-1:1
0:0:1
-1:-1
2:1:1
0:-1
8:3:1
2:-1
0:2:1
-1:-1
0:0:1
-1:-1
0:1:1
-1:-1
0:2:1
-1:-1
2:0:1
0:-1
0:2:1
-1:-1
1:2:1
-1:-1
2:2:1
0:-1
8:2:1
2:-1
1:2:1
-1:-1
0:1:1
-1:-1
0:20:1
-1:-1
0:9:1
-1:1
0:3:1
-1:-1
0:3:1
-1:1
2:1:1
0:-1
0:2:1
-1:-1
0:2:1
-1:-1
0:2:1
-1:-1
0:12:1
-1:-1
0:2:1
-1:-1
0:0:1
-1:-1
0:0:1
-1:-1
2:1:1
0:-1
2:2:1
0:-1
1:2:1
-1:-1
0:1:1
-1:-1
0:2:1
-1:-1
0:3:1
-1:-1
0:1:1
-1:-1
0:0:1
-1:-1
1:2:1
-1:-1
2:0:1
0:-1
2:4:1
0:-1
0:0:1
-1:-1
0:2:1
-1:-1
0:32:1
-1:1
0:20:1
-1:1
3:11:1
0:1
0:2:2
-1:-1
0:2:1
-1:-1
2:0:1
0:-1
0:15:1
-1:-1
0:4:1
-1:-1
0:12:1
-1:-1
5:3:1
1:-1
0:17:1
-1:1
0:1:1
-1:-1
0:8:1
-1:-1
4:1:1
1:-1
0:4:1
-1:-1
0:1:1
-1:-1
1:0:1
-1:-1
0:11:1
-1:-1
0:1:1
-1:-1
0:2:1
-1:1
0:4:1
-1:-1
0:1:1
-1:-1
0:3:1
-1:1
0:8:1
-1:-1
0:1:1
-1:-1
1:1:1
-1:-1
0:6:1
-1:-1
0:1:1
-1:-1
1:2:1
-1:1
0:9:1
-1:-1
0:1:1
-1:-1
0:2:1
-1:1
0:4:1
-1:-1
0:1:1
-1:-1
1:2:1
-1:1
0:8:1
-1:-1
0:1:1
-1:-1
0:2:1
-1:1
0:5:1
-1:-1
0:1:1
-1:-1
1:2:1
-1:1
0:6:1
-1:-1
0:10:1
-1:-1
0:1:1
-1:-1
0:2:1
-1:1
0:2:1
-1:-1
0:2:1
-1:-1
0:1:1
-1:-1
0:0:1
-1:-1
0:0:1
-1:-1
0:0:1
-1:-1
0:0:1
-1:-1
0:0:1
-1:-1
0:0:1
-1:-1
0:0:1
-1:-1
0:0:1
-1:-1
0:0:1
-1:-1
0:0:1
-1:-1
2:0:1
0:-1
0:1:1
-1:-1
0:0:1
-1:-1
0:0:1
-1:-1
0:0:1
-1:-1
2:0:1
0:-1
0:0:1
-1:-1
0:0:1
-1:-1
0:0:1
-1:-1
0:0:1
-1:-1
0:0:1
-1:-1
0:0:1
-1:-1
0:0:1
-1:-1
0:0:1
-1:-1
0:1:1
-1:-1
0:0:1
-1:-1
0:0:1
-1:-1
0:2:1
-1:-1
0:1:1
-1:-1
0:6:1
-1:-1
0:19:1
-1:-1
2:13:1
0:1
0:15:2
-1:-1
1:12:1
-1:-1
0:4:1
-1:-1
0:3:1
-1:-1
4:6:1
1:-1
6:5:1
1:1
2:7:2
0:-1
0:2:2
-1:-1
6:10:1
1:-1
4:2:1
1:-1
3:6:1
0:1
0:1:2
-1:-1
5:7:1
1:-1
3:2:1
0:-1
2:7:1
0:1
0:3:2
-1:-1
0:13:1
-1:1
4:10:1
1:1
3:6:2
0:0
0:4:2
-1:-1
3:3:1
0:1
5:6:2
1:0
2:8:3
0:0
8:2:3
2:0
1:9:4
-1:0
2:7:3
0:0
3:7:3
0:0
0:1:3
-1:-1
0:6:2
-1:-1
4:4:1
1:-1
2:9:1
0:1
0:2:2
-1:-1
1:5:1
-1:1
3:11:1
0:1
4:1:2
1:-1
3:6:2
0:0
0:1:2
-1:-1
0:2:1
-1:-1
0:9:1
-1:-1
1:7:1
-1:-1
0:5:1
-1:-1
0:7:1
-1:1
0:7:1
-1:-1
1:8:1
-1:-1
5:3:1
1:-1
0:4:1
-1:1
5:9:1
1:-1
2:8:1
0:1
0:3:2
-1:-1
0:3:1
-1:-1
3:4:1
0:1
1:5:2
-1:-1
0:2:1
-1:1
0:3:1
-1:-1
0:20:1
-1:1
0:6:1
-1:-1
0:1:1
-1:-1
0:0:1
-1:-1
0:0:1
-1:-1
2:3:1
0:-1
0:3:1
-1:-1
0:11:1
-1:-1
1:7:1
-1:1
0:9:1
-1:-1
0:16:1
-1:1
0:8:1
-1:1
3:4:1
0:-1
8:2:1
2:-1
1:4:1
-1:-1
0:1:1
-1:-1
1:27:1
-1:-1
0:0:1
-1:-1
0:0:1
-1:-1
1:2:1
-1:-1
2:2:1
0:-1
6:3:1
1:-1
0:0:1
-1:-1
0:1:1
-1:-1
0:5:1
-1:-1
0:6:1
-1:-1
0:5:1
-1:-1
2:2:1
0:1
8:3:2
2:-1
2:1:2
0:-1
0:2:2
-1:-1
1:24:1
-1:-1
0:18:1
-1:-1
2:1:1
0:-1
0:2:1
-1:-1
1:2:1
-1:-1
0:0:1
-1:-1
0:13:1
-1:-1
0:6:1
-1:1
0:0:1
-1:-1
0:1:1
-1:-1
2:2:1
0:-1
8:2:1
2:-1
1:2:1
-1:-1
0:0:1
-1:-1
0:1:1
-1:-1
0:6:1
-1:-1
0:8:1
-1:1
0:0:1
-1:-1
0:0:1
-1:-1
0:0:1
-1:-1
0:0:1
-1:-1
0:12:1
-1:-1
2:2:1
0:-1
0:8:1
-1:-1
0:8:1
-1:1
0:12:1
-1:-1
0:2:1
-1:-1
3:2:1
0:-1
0:5:1
-1:-1
0:1:1
-1:-1
0:2:1
-1:-1
0:0:1
-1:-1
0:3:1
-1:-1
0:1:1
-1:-1
0:0:1
-1:-1
0:1:1
-1:-1
0:1:1
-1:-1
1:1:1
-1:-1
0:1:1
-1:-1
0:12:1
-1:-1
0:2:1
-1:1
0:2:1
-1:-1
0:1:1
-1:-1
0:1:1
-1:-1
0:2:1
-1:1
0:1:1
-1:-1
0:2:1
-1:1
0:3:1
-1:-1
2:1:1
0:-1
0:1:1
-1:-1
1:2:1
-1:1
0:2:1
-1:-1
0:4:1
-1:1
0:3:1
-1:1
0:0:1
-1:-1
0:1:1
-1:-1
1:2:1
-1:1
0:2:1
-1:-1
0:2:1
-1:1
0:2:1
-1:1
0:0:1
-1:-1
0:1:1
-1:-1
0:2:1
-1:-1
0:1:1
-1:-1
2:0:1
0:-1
0:0:1
-1:-1
0:0:1
-1:-1
0:0:1
-1:-1
0:0:1
-1:-1
0:0:1
-1:-1
0:0:1
-1:-1
0:0:1
-1:-1
0:0:1
-1:-1
0:0:1
-1:-1
0:0:1
-1:-1
0:0:1
-1:-1
0:0:1
-1:-1
0:0:1
-1:-1
0:0:1
-1:-1
2:0:1
0:-1
0:0:1
-1:-1
0:0:1
-1:-1
0:0:1
-1:-1
0:0:1
-1:-1
0:1:1
-1:-1
0:0:1
-1:-1
0:0:1
-1:-1
0:0:1
-1:-1
0:1:1
-1:-1
0:2:1
-1:1
0:0:1
-1:-1
0:0:1
-1:-1
0:0:1
-1:-1
3:3:1
0:-1
0:13:1
-1:-1
0:21:1
-1:-1
0:21:1
-1:1
0:13:1
-1:-1
0:2:1
-1:-1
0:6:1
-1:1
0:6:1
-1:1
0:1:1
-1:-1
0:2:1
-1:-1
0:5:1
-1:1
1:1:1
-1:1
0:3:1
-1:1
0:0:1
-1:-1
0:3:1
-1:-1
0:0:1
-1:-1
0:6:1
-1:-1
0:2:1
-1:-1
0:2:1
-1:1
0:1:1
-1:-1
1:6:1
-1:1
0:2:1
-1:-1
1:0:1
-1:-1
0:3:1
-1:-1
0:1:1
-1:-1
4:4:1
1:-1
0:1:1
-1:-1
3:9:1
0:-1
0:2:1
-1:-1
1:1:1
-1:-1
0:2:1
-1:-1
4:15:1
1:-1
0:1:1
-1:-1
0:8:1
-1:1
0:4:1
-1:-1
0:1:1
-1:-1
0:2:1
-1:-1
1:23:1
-1:-1
0:3:1
-1:-1
0:3:1
-1:-1
2:2:1
0:-1
0:3:1
-1:-1
0:2:1
-1:-1
0:6:1
-1:-1
0:2:1
-1:-1
0:0:1
-1:-1
0:3:1
-1:-1
0:2:1
-1:-1
0:1:1
-1:-1
0:3:1
-1:-1
1:9:1
-1:1
0:7:1
-1:1
0:0:1
-1:-1
0:3:1
-1:-1
0:1:1
-1:-1
0:0:1
-1:-1
2:1:1
0:-1
0:1:1
-1:-1
1:4:1
-1:1
0:2:1
-1:1
0:1:1
-1:-1
2:5:1
0:-1
0:3:1
-1:-1
1:1:1
-1:-1
0:1:1
-1:-1
0:13:1
-1:1
0:5:1
-1:-1
0:0:1
-1:-1
2:3:1
0:1
0:2:2
-1:-1
0:2:1
-1:-1
0:5:1
-1:-1
0:2:1
-1:-1
0:11:1
-1:-1
0:2:1
-1:1
4:3:1
1:-1
0:3:1
-1:-1
0:3:1
-1:-1
2:1:1
0:-1
0:1:1
-1:-1
0:13:1
-1:-1
3:9:1
0:1
0:1:2
-1:-1
0:3:1
-1:-1
0:2:1
-1:-1
0:2:1
-1:-1
0:0:1
-1:-1
0:0:1
-1:-1
0:5:1
-1:1
6:6:1
1:1
0:0:2
-1:-1
0:3:1
-1:-1
0:2:1
-1:-1
0:0:1
-1:-1
0:2:1
-1:-1
2:5:1
0:1
0:5:2
-1:1
6:22:2
1:-1
0:7:2
-1:0
3:3:1
0:1
3:2:2
0:0
6:6:2
1:-1
5:3:2
1:-1
0:8:2
-1:0
6:8:1
1:1
5:2:2
1:1
8:3:3
2:0
0:11:4
-1:0
2:8:3
0:-1
4:4:3
1:0
4:2:4
1:-1
3:4:4
0:0
1:7:4
-1:0
0:2:3
-1:-1
0:1:2
-1:-1
0:6:1
-1:1
5:5:1
1:-1
5:5:1
1:-1
9:1:1
2:-1
3:10:1
0:1
1:6:2
-1:0
0:1:1
-1:-1
3:1:1
0:-1
2:9:1
0:1
0:7:2
-1:1
0:2:2
-1:-1
8:1:1
2:-1
8:3:1
2:1
1:7:3
-1:0
0:2:2
-1:-1
4:1:1
1:-1
4:2:1
1:1
0:6:2
-1:0
0:2:1
-1:1
5:1:1
1:-1
5:3:1
1:1
6:5:2
1:-1
0:3:2
-1:-1
2:7:1
0:1
0:7:2
-1:1
4:2:2
1:-1
2:1:2
0:-1
0:4:2
-1:0
2:7:1
0:1
4:4:2
1:1
0:3:3
-1:-1
2:3:2
0:-1
0:11:2
-1:0
0:5:1
-1:-1
0:2:1
-1:-1
0:16:1
-1:-1
3:10:1
0:1
2:3:2
0:-1
0:2:2
-1:-1
3:4:1
0:1
1:6:2
-1:1
2:2:2
0:-1
0:1:2
-1:-1
0:3:1
-1:-1
1:10:1
-1:-1
2:3:1
0:-1
5:2:1
1:-1
0:5:1
-1:1
2:9:1
0:1
5:4:2
1:0
0:2:3
-1:-1
1:4:2
-1:-1
2:8:1
0:-1
3:1:1
0:-1
0:1:1
-1:-1
2:4:1
0:1
1:8:2
-1:1
2:2:2
0:-1
0:1:2
-1:-1
0:8:1
-1:-1
1:0:1
-1:-1
2:0:1
0:-1
0:5:1
-1:-1
1:5:1
-1:1
2:2:1
0:-1
0:1:1
-1:-1
0:5:1
-1:1
0:0:1
-1:-1
1:3:1
-1:-1
8:8:1
2:1
2:1:3
0:-1
0:1:3
-1:-1
0:10:2
-1:-1
2:8:1
0:-1
0:3:1
-1:-1
1:9:1
-1:-1
3:1:1
0:-1
0:1:1
-1:-1
0:8:1
-1:-1
0:20:1
-1:-1
1:9:1
-1:-1
2:2:1
0:-1
0:3:1
-1:-1
0:11:1
-1:-1
0:7:1
-1:1
0:3:1
-1:-1
0:2:1
-1:-1
1:10:1
-1:-1
2:2:1
0:-1
0:2:1
-1:-1
0:35:1
-1:1
0:4:1
-1:-1
0:0:1
-1:-1
0:4:1
-1:-1
0:22:1
-1:-1
2:11:1
0:-1
0:7:1
-1:-1
3:6:1
0:-1
4:2:1
1:-1
0:7:1
-1:-1
0:0:1
-1:-1
0:0:1
-1:-1
0:1:1
-1:-1
0:8:1
-1:-1
0:0:1
-1:-1
0:0:1
-1:-1
2:1:1
0:-1
0:0:1
-1:-1
0:1:1
-1:-1
0:0:1
-1:-1
2:2:1
0:-1
0:4:1
-1:-1
0:1:1
-1:-1
0:1:1
-1:-1
0:12:1
-1:1
0:8:1
-1:-1
2:1:1
0:-1
0:2:1
-1:-1
4:2:1
1:-1
0:1:1
-1:-1
0:1:1
-1:-1
0:1:1
-1:-1
0:0:1
-1:-1
0:2:1
-1:-1
3:1:1
0:-1
0:1:1
-1:-1
3:10:1
0:1
0:0:2
-1:-1
0:0:1
-1:-1
0:7:1
-1:-1
0:19:1
-1:1
0:1:1
-1:-1
0:0:1
-1:-1
0:0:1
-1:-1
0:6:1
-1:-1
0:17:1
-1:-1
0:5:1
-1:1
1:9:1
-1:-1
0:0:1
-1:-1
0:1:1
-1:-1
0:5:1
-1:1
0:3:1
-1:1
0:1:1
-1:-1
0:4:1
-1:-1
0:2:1
-1:1
0:5:1
-1:-1
0:2:1
-1:-1
0:17:1
-1:-1
0:1:1
-1:-1
1:2:1
-1:-1
2:2:1
0:-1
8:3:1
2:-1
2:2:1
0:-1
0:2:1
-1:-1
0:6:1
-1:-1
0:2:1
-1:-1
0:0:1
-1:-1
0:3:1
-1:-1
0:1:1
-1:-1
4:2:1
1:-1
2:3:1
0:-1
0:1:1
-1:-1
0:17:1
-1:-1
0:11:1
-1:-1
5:7:1
1:1
0:3:2
-1:-1
0:1:1
-1:-1
0:2:1
-1:-1
0:14:1
-1:-1
0:7:1
-1:-1
0:0:1
-1:-1
0:0:1
-1:-1
2:3:1
0:-1
5:1:1
1:-1
0:1:1
-1:-1
0:1:1
-1:-1
0:8:1
-1:-1
0:3:1
-1:-1
0:0:1
-1:-1
0:0:1
-1:-1
2:4:1
0:-1
2:2:1
0:-1
0:1:1
-1:-1
0:2:1
-1:-1
0:11:1
-1:-1
1:20:1
-1:1
1:2:1
-1:-1
2:1:1
0:-1
8:3:1
2:-1
0:2:1
-1:-1
0:0:1
-1:-1
0:3:1
-1:-1
0:1:1
-1:-1
0:0:1
-1:-1
0:0:1
-1:-1
0:3:1
-1:-1
5:2:1
1:-1
0:1:1
-1:-1
0:1:1
-1:-1
0:27:1
-1:-1
0:4:1
-1:1
0:0:1
-1:-1
0:0:1
-1:-1
2:2:1
0:-1
8:2:1
2:-1
2:2:1
0:-1
0:1:1
-1:-1
0:23:1
-1:-1
0:4:1
-1:1
0:0:1
-1:-1
0:0:1
-1:-1
2:2:1
0:-1
8:2:1
2:-1
2:1:1
0:-1
0:1:1
-1:-1
0:5:1
-1:-1
0:2:1
-1:-1
0:0:1
-1:-1
2:1:1
0:-1
4:2:1
1:-1
0:1:1
-1:-1
0:16:1
-1:-1
2:8:1
0:1
0:1:2
-1:0
0:0:1
-1:-1
5:1:1
1:-1
3:3:1
0:-1
11:3:1
2:-1
1:2:1
-1:-1
0:0:1
-1:-1
0:17:1
-1:-1
1:3:1
-1:1
2:0:1
0:-1
0:2:1
-1:-1
0:0:1
-1:-1
0:2:1
-1:-1
0:5:1
-1:1
2:2:1
0:1
0:7:2
-1:-1
0:11:1
-1:1
1:8:1
-1:-1
0:4:1
-1:-1
0:0:1
-1:-1
2:3:1
0:-1
2:1:1
0:-1
0:1:1
-1:-1
0:3:1
-1:-1
0:23:1
-1:-1
0:13:1
-1:-1
3:4:1
0:-1
0:0:1
-1:-1
6:3:1
1:-1
8:2:1
2:-1
6:2:1
1:1
1:4:2
-1:-1
0:0:1
-1:-1
0:19:1
-1:-1
0:18:1
-1:1
0:1:1
-1:-1
2:2:1
0:-1
4:1:1
1:-1
2:0:1
0:-1
0:1:1
-1:-1
0:1:1
-1:-1
0:4:1
-1:-1
2:17:1
0:1
0:2:2
-1:0
0:0:1
-1:-1
6:2:1
1:-1
4:1:1
1:-1
8:1:1
2:-1
0:0:1
-1:-1
0:3:1
-1:-1
0:9:1
-1:-1
0:4:1
-1:-1
0:1:1
-1:-1
0:0:1
-1:-1
2:2:1
0:-1
2:1:1
0:-1
0:1:1
-1:-1
0:2:1
-1:-1
0:7:1
-1:-1
0:3:1
-1:-1
0:1:1
-1:-1
2:3:1
0:-1
0:2:1
-1:-1
4:1:1
1:-1
0:1:1
-1:-1
0:1:1
-1:-1
0:17:1
-1:-1
0:3:1
-1:1
0:2:1
-1:-1
1:0:1
-1:-1
5:1:1
1:-1
3:2:1
0:-1
8:1:1
2:-1
0:0:1
-1:-1
0:1:1
-1:-1
0:16:1
-1:-1
0:6:1
-1:1
0:2:1
-1:-1
0:1:1
-1:-1
0:2:1
-1:-1
6:4:1
1:-1
0:3:1
-1:-1
0:1:1
-1:-1
0:10:1
-1:-1
0:4:1
-1:-1
6:2:1
1:-1
4:1:1
1:-1
8:1:1
2:-1
0:0:1
-1:-1
0:2:1
-1:-1
1:7:1
-1:-1
0:4:1
-1:-1
0:0:1
-1:-1
0:0:1
-1:-1
2:1:1
0:-1
3:1:1
0:-1
3:0:1
0:-1
0:1:1
-1:-1
0:1:1
-1:-1
1:12:1
-1:-1
0:9:1
-1:-1
0:1:1
-1:-1
5:1:1
1:-1
3:2:1
0:-1
8:1:1
2:-1
0:0:1
-1:-1
0:2:1
-1:-1
0:10:1
-1:-1
0:33:1
-1:1
2:1:1
0:-1
8:3:1
2:-1
0:1:1
-1:-1
0:0:1
-1:-1
0:1:1
-1:-1
0:3:1
-1:-1
0:0:1
-1:-1
0:4:1
-1:-1
0:5:1
-1:1
0:2:1
-1:1
0:1:1
-1:-1
0:31:1
-1:-1
0:8:1
-1:1
4:3:1
1:-1
2:0:1
0:-1
2:3:1
0:-1
0:1:1
-1:-1
0:12:1
-1:-1
0:0:1
-1:-1
0:0:1
-1:-1
0:2:1
-1:-1
6:3:1
1:-1
0:0:1
-1:-1
6:1:1
1:-1
0:19:1
-1:-1
0:6:1
-1:-1
0:0:1
-1:-1
0:1:1
-1:-1
5:3:1
1:-1
0:0:1
-1:-1
0:3:1
-1:-1
0:9:1
-1:1
0:18:1
-1:-1
0:2:1
-1:1
5:3:1
1:-1
0:0:1
-1:-1
5:1:1
1:-1
0:10:1
-1:-1
0:11:1
-1:-1
2:0:1
0:-1
2:2:1
0:-1
5:2:1
1:-1
0:30:1
-1:-1
0:5:1
-1:-1
0:2:1
-1:-1
2:2:1
0:-1
4:3:1
1:-1
0:1:1
-1:-1
0:0:1
-1:-1
0:12:1
-1:-1
0:0:1
-1:-1
0:1:1
-1:-1
0:1:1
-1:1
4:1:1
1:-1
2:1:1
0:-1
5:0:1
1:-1
0:6:1
-1:-1
0:5:1
-1:1
0:3:1
-1:-1
0:0:1
-1:-1
0:2:1
-1:-1
2:3:1
0:-1
0:3:1
-1:-1
0:16:1
-1:-1
0:14:1
-1:1
1:2:1
-1:-1
3:2:1
0:-1
0:2:1
-1:-1
5:1:1
1:-1
0:4:1
-1:-1
0:5:1
-1:1
0:1:1
-1:-1
0:0:1
-1:-1
0:1:1
-1:-1
2:2:1
0:-1
4:1:1
1:-1
3:1:1
0:1
0:13:2
-1:-1
0:9:1
-1:1
0:1:1
-1:1
0:1:1
-1:-1
5:3:1
1:-1
4:1:1
1:-1
0:1:1
-1:1
0:5:1
-1:-1
0:1:1
-1:-1
0:0:1
-1:-1
0:1:1
-1:-1
0:1:1
-1:-1
2:2:1
0:-1
0:3:1
-1:-1
1:25:1
-1:-1
0:16:1
-1:-1
0:2:1
-1:-1
3:2:1
0:-1
8:1:1
2:-1
0:5:1
-1:-1
0:1:1
-1:-1
0:1:1
-1:-1
0:1:1
-1:-1
0:2:1
-1:-1
0:1:1
-1:-1
8:2:1
2:-1
2:1:1
0:-1
0:2:1
-1:-1
0:19:1
-1:-1
0:18:1
-1:1
0:3:1
-1:1
0:0:1
-1:-1
2:3:1
0:-1
2:2:1
0:-1
0:0:1
-1:-1
0:2:1
-1:-1
0:19:1
-1:-1
0:1:1
-1:-1
2:2:1
0:-1
4:2:1
1:-1
0:1:1
-1:-1
1:1:1
-1:-1
0:2:1
-1:-1
0:16:1
-1:-1
0:4:1
-1:-1
0:1:1
-1:-1
0:1:1
-1:-1
2:2:1
0:1
6:3:2
1:-1
2:1:2
0:-1
0:2:2
-1:-1
1:12:1
-1:-1
0:7:1
-1:-1
0:0:1
-1:-1
5:1:1
1:-1
0:1:1
-1:-1
0:2:1
-1:-1
0:3:1
-1:-1
0:12:1
-1:-1
0:36:1
-1:1
2:2:1
0:-1
8:1:1
2:-1
0:1:1
-1:-1
0:2:1
-1:-1
2:25:1
0:-1
0:16:1
-1:1
2:3:1
0:-1
8:2:1
2:-1
0:1:1
-1:-1
0:1:1
-1:-1
1:12:1
-1:-1
0:17:1
-1:-1
0:3:1
-1:1
1:4:1
-1:-1
2:2:1
0:-1
6:3:1
1:-1
0:0:1
-1:-1
0:2:1
-1:-1
0:3:1
-1:-1
0:1:1
-1:-1
0:0:1
-1:-1
2:2:1
0:-1
8:2:1
2:-1
0:0:1
-1:-1
0:2:1
-1:-1
0:2:1
-1:-1
0:3:1
-1:-1
0:2:1
-1:-1
0:2:1
-1:-1
2:3:1
0:-1
8:2:1
2:-1
2:3:1
0:-1
0:1:1
-1:-1
1:18:1
-1:-1
0:5:1
-1:-1
0:0:1
-1:-1
5:2:1
1:-1
5:0:1
1:-1
8:1:1
2:-1
1:2:1
-1:-1
0:1:1
-1:-1
1:12:1
-1:-1
1:4:1
-1:1
0:0:1
-1:-1
0:1:1
-1:-1
2:3:1
0:1
8:2:2
2:-1
2:1:2
0:-1
0:1:2
-1:-1
0:22:1
-1:-1
2:20:1
0:1
0:0:2
-1:-1
0:2:1
-1:-1
0:3:1
-1:-1
0:7:1
-1:-1
2:11:1
0:1
0:6:2
-1:-1
0:1:1
-1:1
2:2:1
0:-1
2:2:1
0:-1
0:0:1
-1:-1
0:2:1
-1:-1
0:4:1
-1:-1
5:9:1
1:1
0:2:2
-1:-1
4:1:1
1:-1
0:1:1
-1:-1
0:1:1
-1:-1
0:12:1
-1:-1
0:27:1
-1:1
0:0:1
-1:-1
0:1:1
-1:-1
0:2:1
-1:-1
4:2:1
1:-1
0:2:1
-1:-1
2:4:1
0:1
0:17:2
-1:-1
4:2:1
1:-1
2:0:1
0:-1
0:1:1
-1:-1
0:1:1
-1:-1
0:12:1
-1:-1
0:3:1
-1:-1
0:5:1
-1:-1
0:9:1
-1:-1
0:4:1
-1:-1
0:1:1
-1:-1
0:4:1
-1:-1
1:1:1
-1:-1
0:5:1
-1:-1
0:1:1
-1:-1
1:1:1
-1:-1
0:6:1
-1:-1
0:2:1
-1:-1
0:1:1
-1:-1
0:6:1
-1:-1
1:3:1
-1:-1
0:4:1
-1:-1
0:0:1
-1:-1
1:2:1
-1:-1
0:4:1
-1:-1
0:1:1
-1:-1
0:3:1
-1:1
0:6:1
-1:-1
0:1:1
-1:-1
0:3:1
-1:1
0:5:1
-1:-1
0:1:1
-1:-1
1:2:1
-1:1
0:6:1
-1:-1
0:1:1
-1:-1
0:2:1
-1:1
0:5:1
-1:-1
0:1:1
-1:-1
0:1:1
-1:1
0:4:1
-1:-1
0:1:1
-1:-1
0:2:1
-1:1
0:5:1
-1:-1
0:1:1
-1:-1
0:0:1
-1:-1
0:0:1
-1:-1
0:0:1
-1:-1
0:0:1
-1:-1
0:0:1
-1:-1
0:0:1
-1:-1
0:0:1
-1:-1
2:0:1
0:-1
0:0:1
-1:-1
0:0:1
-1:-1
0:0:1
-1:-1
0:0:1
-1:-1
0:0:1
-1:-1
0:0:1
-1:-1
2:0:1
0:-1
0:0:1
-1:-1
0:1:1
-1:-1
0:0:1
-1:-1
0:0:1
-1:-1
0:0:1
-1:-1
0:0:1
-1:-1
0:0:1
-1:-1
0:0:1
-1:-1
0:4:1
-1:-1
0:0:1
-1:-1
0:1:1
-1:-1
0:0:1
-1:-1
0:0:1
-1:-1
0:0:1
-1:-1
0:1:1
-1:-1
0:0:1
-1:-1
0:0:1
-1:-1
0:0:1
-1:-1
2:8:1
0:-1
0:14:1
-1:-1
0:4:1
-1:-1
0:10:1
-1:-1
0:3:1
-1:-1
0:4:1
-1:-1
0:4:1
-1:-1
3:0:1
0:-1
1:0:1
-1:-1
0:4:1
-1:-1
2:8:1
0:-1
0:9:1
-1:1
5:4:1
1:-1
0:12:1
-1:1
0:2:1
-1:-1
0:2:1
-1:-1
0:6:1
-1:-1
3:6:1
0:1
2:7:2
0:0
0:2:2
-1:0
1:8:1
-1:-1
0:5:1
-1:-1
0:6:1
-1:1
0:4:1
-1:-1
2:2:1
0:-1
2:9:1
0:1
0:4:2
-1:-1
4:5:1
1:1
5:2:2
1:1
0:9:3
-1:1
0:8:3
-1:0
0:3:2
-1:0
1:6:1
-1:-1
1:9:1
-1:-1
1:6:1
-1:-1
5:2:1
1:-1
3:12:1
0:1
4:9:2
1:1
3:8:3
0:0
2:1:3
0:-1
3:3:3
0:1
0:6:4
-1:0
2:6:3
0:-1
0:3:3
-1:-1
2:4:2
0:-1
2:3:2
0:0
3:9:2
0:0
0:3:2
-1:-1
7:8:1
1:-1
5:3:1
1:1
2:9:2
0:0
0:3:2
-1:-1
3:12:1
0:1
0:3:2
-1:-1
1:7:1
-1:-1
3:4:1
0:-1
4:1:1
1:-1
0:10:1
-1:1
0:6:1
-1:-1
0:3:1
-1:1
1:1:1
-1:-1
0:8:1
-1:1
0:4:1
-1:-1
0:5:1
-1:1
0:9:1
-1:-1
0:9:1
-1:-1
0:3:1
-1:-1
0:1:1
-1:-1
2:10:1
0:-1
0:9:1
-1:-1
0:9:1
-1:1
0:7:1
-1:-1
3:1:1
0:-1
0:2:1
-1:-1
0:3:1
-1:-1
2:2:1
0:1
0:5:2
-1:-1
0:7:1
-1:1
0:1:1
-1:-1
0:0:1
-1:-1
2:1:1
0:-1
0:1:1
-1:-1
1:3:1
-1:-1
0:1:1
-1:-1
0:4:1
-1:-1
0:1:1
-1:-1
0:1:1
-1:-1
1:0:1
-1:-1
0:1:1
-1:-1
1:0:1
-1:-1
0:2:1
-1:1
0:0:1
-1:-1
2:7:1
0:-1
0:2:1
-1:-1
0:2:1
-1:-1
0:2:1
-1:-1
1:0:1
-1:-1
0:3:1
-1:-1
0:5:1
-1:-1
0:5:1
-1:-1
1:0:1
-1:-1
0:1:1
-1:-1
1:2:1
-1:-1
0:3:1
-1:1
1:8:1
-1:-1
0:1:1
-1:-1
0:1:1
-1:-1
1:0:1
-1:-1
0:2:1
-1:1
1:1:1
-1:1
0:6:1
-1:-1
0:4:1
-1:-1
0:0:1
-1:-1
0:1:1
-1:-1
0:2:1
-1:-1
1:4:1
-1:1
0:6:1
-1:-1
0:5:1
-1:-1
0:2:1
-1:1
0:0:1
-1:-1
0:2:1
-1:-1
1:2:1
-1:-1
0:1:1
-1:-1
0:7:1
-1:-1
0:1:1
-1:-1
0:1:1
-1:-1
0:1:1
-1:-1
2:2:1
0:-1
0:3:1
-1:-1
0:6:1
-1:-1
0:1:1
-1:-1
1:5:1
-1:-1
0:2:1
-1:-1
1:3:1
-1:-1
0:1:1
-1:-1
1:6:1
-1:-1
0:3:1
-1:1
1:3:1
-1:-1
0:1:1
-1:-1
1:3:1
-1:1
0:3:1
-1:1
0:4:1
-1:-1
0:3:1
-1:-1
0:3:1
-1:-1
0:1:1
-1:-1
2:3:1
0:-1
5:25:1
1:1
0:1:2
-1:-1
0:3:1
-1:-1
0:2:1
-1:-1
0:2:1
-1:-1
6:7:1
1:-1
0:2:1
-1:-1
1:11:1
-1:-1
1:7:1
-1:-1
2:1:1
0:-1
0:1:1
-1:-1
0:9:1
-1:-1
0:5:1
-1:1
2:0:1
0:-1
0:4:1
-1:-1
2:4:1
0:-1
0:5:1
-1:1
0:2:1
-1:-1
0:24:1
-1:-1
4:5:1
1:-1
0:1:1
-1:-1
2:7:1
0:-1
0:5:1
-1:1
0:5:1
-1:-1
0:21:1
-1:-1
5:8:1
1:-1
0:0:1
-1:-1
0:2:1
-1:-1
0:4:1
-1:-1
4:3:1
1:-1
0:1:1
-1:-1
2:1:1
0:-1
0:7:1
-1:-1
0:2:1
-1:-1
0:6:1
-1:-1
4:2:1
1:-1
0:2:1
-1:-1
1:24:1
-1:-1
0:15:1
-1:1
0:0:1
-1:-1
0:1:1
-1:-1
1:3:1
-1:-1
0:1:1
-1:-1
0:0:1
-1:-1
0:11:1
-1:-1
0:6:1
-1:-1
0:6:1
-1:-1
2:7:1
0:-1
2:1:1
0:-1
0:1:1
-1:-1
1:1:1
-1:-1
0:1:1
-1:-1
0:8:1
-1:-1
0:7:1
-1:-1
0:1:1
-1:-1
0:4:1
-1:-1
0:2:1
-1:-1
2:2:1
0:-1
0:3:1
-1:1
0:1:1
-1:-1
0:1:1
-1:1
0:1:1
-1:-1
0:4:1
-1:-1
0:1:1
-1:-1
0:0:1
-1:-1
0:1:1
-1:-1
0:1:1
-1:-1
0:1:1
-1:-1
0:1:1
-1:1
0:0:1
-1:-1
4:3:1
1:-1
4:2:1
1:-1
0:0:1
-1:-1
0:2:1
-1:-1
0:3:1
-1:-1
2:0:1
0:-1
2:1:1
0:-1
0:2:1
-1:-1
4:3:1
1:1
3:2:2
0:-1
0:1:2
-1:-1
4:2:1
1:-1
0:2:1
-1:-1
0:2:1
-1:-1
0:2:1
-1:-1
0:2:1
-1:-1
4:3:1
1:1
0:1:2
-1:-1
0:19:1
-1:1
0:17:1
-1:1
0:2:1
-1:-1
0:1:1
-1:-1
0:3:1
-1:-1
0:0:1
-1:-1
4:5:1
1:-1
5:6:1
1:1
0:2:2
-1:-1
0:4:1
-1:1
0:2:1
-1:-1
0:1:1
-1:-1
0:1:1
-1:-1
1:2:1
-1:-1
1:3:1
-1:-1
0:0:1
-1:-1
0:1:1
-1:-1
0:1:1
-1:1
3:1:1
0:-1
0:4:1
-1:-1
0:2:1
-1:-1
0:0:1
-1:-1
0:0:1
-1:-1
0:3:1
-1:-1
0:0:1
-1:-1
0:1:1
-1:1
2:0:1
0:-1
0:3:1
-1:-1
0:1:1
-1:-1
0:2:1
-1:-1
0:4:1
-1:-1
0:10:1
-1:1
0:1:1
-1:-1
0:2:1
-1:-1
0:6:1
-1:-1
0:0:1
-1:-1
0:1:1
-1:-1
0:1:1
-1:-1
3:5:1
0:-1
0:5:1
-1:-1
0:1:1
-1:-1
4:4:1
1:1
0:2:2
-1:-1
0:5:1
-1:1
0:2:1
-1:1
0:0:1
-1:-1
0:1:1
-1:-1
1:4:1
-1:1
0:0:1
-1:-1
0:3:1
-1:-1
0:1:1
-1:-1
0:0:1
-1:-1
0:3:1
-1:-1
0:1:1
-1:-1
0:2:1
-1:1
3:1:1
0:-1
0:0:1
-1:-1
0:0:1
-1:-1
0:2:1
-1:1
0:0:1
-1:-1
0:0:1
-1:-1
0:3:1
-1:-1
0:5:1
-1:-1
0:1:1
-1:1
0:1:1
-1:-1
0:3:1
-1:1
3:0:1
0:-1
0:4:1
-1:-1
0:1:1
-1:-1
0:2:1
-1:1
0:0:1
-1:-1
3:4:1
0:-1
3:1:1
0:-1
0:3:1
-1:-1
0:0:1
-1:-1
0:3:1
-1:1
0:0:1
-1:-1
0:3:1
-1:-1
0:0:1
-1:-1
3:3:1
0:-1
0:5:1
-1:-1
0:2:1
-1:-1
2:1:1
0:-1
0:4:1
-1:-1
0:1:1
-1:-1
0:2:1
-1:1
0:4:1
-1:1
0:3:1
-1:-1
0:1:1
-1:-1
0:1:1
-1:-1
1:1:1
-1:-1
0:4:1
-1:-1
0:3:1
-1:1
4:5:1
1:1
0:3:2
-1:-1
0:1:1
-1:-1
0:33:1
-1:-1
0:6:1
-1:1
2:2:1
0:-1
0:1:1
-1:-1
0:0:1
-1:-1
0:2:1
-1:-1
0:4:1
-1:-1
0:4:1
-1:-1
0:9:1
-1:-1
0:2:1
-1:-1
0:0:1
-1:-1
5:1:1
1:-1
0:1:1
-1:-1
0:11:1
-1:-1
0:1:1
-1:1
0:1:1
-1:-1
0:1:1
-1:-1
0:2:1
-1:-1
0:1:1
-1:-1
0:2:1
-1:1
0:2:1
-1:1
0:3:1
-1:-1
0:0:1
-1:-1
1:1:1
-1:-1
0:3:1
-1:-1
0:4:1
-1:1
0:1:1
-1:-1
0:0:1
-1:-1
0:0:1
-1:-1
1:1:1
-1:-1
0:2:1
-1:-1
0:1:1
-1:-1
0:1:1
-1:-1
0:1:1
-1:-1
0:0:1
-1:-1
1:1:1
-1:-1
0:1:1
-1:-1
0:7:1
-1:-1
0:2:1
-1:1
0:0:1
-1:-1
0:0:1
-1:-1
1:1:1
-1:-1
0:2:1
-1:-1
1:1:1
-1:1
0:0:1
-1:-1
0:1:1
-1:-1
0:0:1
-1:-1
0:8:1
-1:-1
0:0:1
-1:-1
0:0:1
-1:-1
0:0:1
-1:-1
0:0:1
-1:-1
0:0:1
-1:-1
0:0:1
-1:-1
0:0:1
-1:-1
0:0:1
-1:-1
0:0:1
-1:-1
0:0:1
-1:-1
0:1:1
-1:-1
0:0:1
-1:-1
0:0:1
-1:-1
0:0:1
-1:-1
0:0:1
-1:-1
2:0:1
0:-1
0:0:1
-1:-1
0:0:1
-1:-1
0:0:1
-1:-1
0:0:1
-1:-1
2:0:1
0:-1
0:1:1
-1:-1
2:1:1
0:1
0:0:2
-1:-1
0:0:1
-1:-1
0:3:1
-1:-1
0:0:1
-1:-1
0:0:1
-1:-1
0:0:1
-1:-1
0:0:1
-1:-1
2:3:1
0:-1
0:9:1
-1:-1
0:24:1
-1:1
4:9:1
1:-1
0:15:1
-1:-1
0:8:1
-1:-1
0:5:1
-1:1
1:4:1
-1:-1
0:6:1
-1:1
0:1:1
-1:-1
9:1:1
2:-1
7:3:1
1:-1
0:5:1
-1:-1
0:2:1
-1:1
6:2:1
1:-1
6:2:1
1:1
9:7:2
2:0
0:3:3
-1:-1
0:7:2
-1:-1
4:8:1
1:-1
0:4:1
-1:1
0:3:1
-1:-1
0:2:1
-1:-1
1:3:1
-1:-1
2:1:1
0:-1
0:1:1
-1:-1
0:3:1
-1:-1
6:4:1
1:-1
2:1:1
0:-1
0:2:1
-1:-1
7:2:1
1:-1
5:2:1
1:-1
3:5:1
0:-1
4:3:1
1:-1
0:6:1
-1:-1
3:4:1
0:1
0:2:2
-1:-1
0:3:1
-1:-1
1:6:1
-1:-1
0:3:1
-1:1
0:1:1
-1:-1
0:4:1
-1:1
2:3:1
0:-1
0:1:1
-1:-1
0:3:1
-1:-1
6:4:1
1:-1
4:1:1
1:-1
0:2:1
-1:-1
0:27:1
-1:1
4:4:1
1:-1
0:1:1
-1:1
0:22:1
-1:1
0:9:1
-1:1
0:5:1
-1:-1
0:7:1
-1:1
0:3:1
-1:-1
5:4:1
1:1
0:3:2
-1:-1
2:5:1
0:-1
0:0:1
-1:-1
2:3:1
0:-1
0:7:1
-1:1
2:3:1
0:-1
2:1:1
0:1
3:1:2
0:-1
0:4:2
-1:-1
0:1:1
-1:-1
0:0:1
-1:-1
0:1:1
-1:-1
0:1:1
-1:-1
0:1:1
-1:-1
0:0:1
-1:-1
0:2:1
-1:-1
0:3:1
-1:1
0:0:1
-1:-1
0:0:1
-1:-1
0:1:1
-1:-1
0:2:1
-1:-1
0:1:1
-1:-1
0:0:1
-1:-1
0:1:1
-1:-1
0:3:1
-1:-1
0:1:1
-1:-1
0:2:1
-1:-1
0:6:1
-1:-1
0:7:1
-1:1
3:2:1
0:1
0:2:2
-1:-1
0:0:1
-1:-1
0:3:1
-1:1
5:1:1
1:-1
0:3:1
-1:-1
0:2:1
-1:1
0:3:1
-1:-1
0:0:1
-1:-1
0:3:1
-1:1
0:0:1
-1:-1
0:2:1
-1:-1
3:3:1
0:-1
0:0:1
-1:-1
0:2:1
-1:-1
0:0:1
-1:-1
0:1:1
-1:-1
0:1:1
-1:-1
0:0:1
-1:-1
0:4:1
-1:-1
0:0:1
-1:-1
0:2:1
-1:-1
0:2:1
-1:-1
0:0:1
-1:-1
0:1:1
-1:-1
3:0:1
0:-1
0:1:1
-1:-1
0:0:1
-1:-1
0:1:1
-1:-1
0:2:1
-1:-1
0:3:1
-1:-1
0:0:1
-1:-1
0:1:1
-1:-1
2:1:1
0:-1
0:9:1
-1:-1
0:0:1
-1:-1
0:1:1
-1:-1
5:0:1
1:-1
1:0:1
-1:-1
3:1:1
0:-1
0:3:1
-1:-1
0:5:1
-1:-1
0:4:1
-1:1
2:2:1
0:-1
0:2:1
-1:-1
0:0:1
-1:-1
0:1:1
-1:-1
0:1:1
-1:-1
0:1:1
-1:-1
4:2:1
1:-1
0:2:1
-1:-1
0:1:1
-1:-1
0:0:1
-1:-1
0:2:1
-1:-1
0:2:1
-1:-1
1:5:1
-1:1
0:0:1
-1:-1
0:1:1
-1:-1
0:1:1
-1:-1
2:3:1
0:1
0:0:2
-1:-1
0:3:1
-1:1
0:1:1
-1:-1
0:1:1
-1:-1
0:3:1
-1:1
0:15:1
-1:1
0:17:1
-1:1
0:3:1
-1:-1
0:7:1
-1:-1
3:5:1
0:-1
0:0:1
-1:-1
0:4:1
-1:-1
0:4:1
-1:1
0:17:1
-1:-1
0:13:1
-1:1
0:2:1
-1:1
0:4:1
-1:-1
3:6:1
0:1
4:1:2
1:-1
1:5:2
-1:-1
0:4:1
-1:-1
2:2:1
0:-1
0:10:1
-1:-1
0:2:1
-1:1
4:6:1
1:1
0:4:2
-1:-1
1:6:1
-1:-1
0:1:1
-1:-1
0:0:1
-1:-1
1:2:1
-1:-1
0:10:1
-1:1
5:6:1
1:1
2:6:2
0:-1
0:1:2
-1:-1
0:4:1
-1:1
0:2:1
-1:-1
1:21:1
-1:1
0:9:1
-1:1
2:9:1
0:1
0:2:2
-1:-1
0:5:1
-1:-1
0:3:1
-1:1
0:14:1
-1:-1
0:6:1
-1:1
0:3:1
-1:-1
0:4:1
-1:1
1:6:1
-1:-1
0:2:1
-1:-1
2:7:1
0:1
0:9:2
-1:1
3:6:2
0:1
0:6:3
-1:-1
1:6:2
-1:-1
0:3:1
-1:-1
2:3:1
0:1
0:9:2
-1:1
2:6:2
0:0
0:3:2
-1:0
1:6:1
-1:-1
0:3:1
-1:-1
1:1:1
-1:1
0:9:1
-1:1
0:5:1
-1:1
3:7:1
0:-1
0:3:1
-1:-1
0:3:1
-1:1
3:2:1
0:-1
0:8:1
-1:1
4:6:1
1:1
5:4:2
1:-1
0:5:2
-1:-1
2:3:1
0:-1
0:2:1
-1:-1
1:1:1
-1:-1
0:8:1
-1:-1
0:6:1
-1:-1
0:4:1
-1:-1
1:6:1
-1:-1
0:3:1
-1:-1
1:1:1
-1:-1
0:10:1
-1:1
4:5:1
1:1
3:4:2
0:0
3:2:2
0:-1
0:4:2
-1:1
0:4:2
-1:0
2:2:1
0:1
0:5:2
-1:-1
0:3:1
-1:-1
4:4:1
1:-1
1:3:1
-1:-1
0:1:1
-1:-1
2:5:1
0:-1
0:30:1
-1:-1
3:5:1
0:-1
0:2:1
-1:-1
2:3:1
0:1
1:9:2
-1:1
2:3:2
0:-1
0:2:2
-1:-1
1:4:1
-1:-1
2:7:1
0:-1
2:3:1
0:-1
4:2:1
1:-1
5:2:1
1:1
0:6:2
-1:0
2:5:1
0:-1
0:2:1
-1:-1
2:15:1
0:-1
6:5:1
1:1
0:5:2
-1:-1
2:5:1
0:1
1:7:2
-1:0
2:1:1
0:-1
0:2:1
-1:-1
0:26:1
-1:-1
1:13:1
-1:1
0:2:1
-1:-1
0:2:1
-1:-1
0:2:1
-1:1
1:9:1
-1:1
0:2:1
-1:-1
0:0:1
-1:-1
1:4:1
-1:-1
6:6:1
1:1
0:4:2
-1:-1
0:7:1
-1:-1
0:8:1
-1:-1
0:2:1
-1:-1
6:8:1
1:-1
10:6:1
2:1
0:2:3
-1:-1
0:1:2
-1:0
0:15:1
-1:-1
0:5:1
-1:1
0:1:1
-1:-1
0:3:1
-1:-1
0:13:1
-1:-1
0:12:1
-1:-1
0:2:1
-1:-1
0:7:1
-1:-1
0:2:1
-1:-1
0:5:1
-1:-1
2:2:1
0:-1
0:3:1
-1:-1
0:7:1
-1:-1
8:2:1
2:-1
0:3:1
-1:-1
2:31:1
0:-1
0:7:1
-1:-1
0:2:1
-1:-1
0:2:1
-1:-1
0:1:1
-1:-1
2:21:1
0:-1
0:9:1
-1:-1
0:8:1
-1:-1
0:6:1
-1:-1
0:18:1
-1:-1
0:2:1
-1:1
0:0:1
-1:-1
0:3:1
-1:-1
0:5:1
-1:-1
0:1:1
-1:-1
0:0:1
-1:-1
0:0:1
-1:-1
0:4:1
-1:-1
0:1:1
-1:-1
0:2:1
-1:-1
0:3:1
-1:-1
4:1:1
1:-1
0:1:1
-1:-1
0:2:1
-1:-1
0:6:1
-1:-1
0:5:1
-1:1
0:4:1
-1:-1
0:2:1
-1:-1
0:1:1
-1:-1
0:4:1
-1:-1
0:0:1
-1:-1
0:1:1
-1:-1
0:2:1
-1:-1
4:4:1
1:-1
0:1:1
-1:-1
0:3:1
-1:1
0:1:1
-1:-1
0:8:1
-1:1
0:3:1
-1:1
0:17:1
-1:-1
0:7:1
-1:-1
0:3:1
-1:-1
0:0:1
-1:-1
0:2:1
-1:-1
2:7:1
0:-1
2:12:1
0:-1
0:4:1
-1:-1
0:11:1
-1:-1
1:22:1
-1:-1
0:9:1
-1:-1
0:1:1
-1:-1
0:0:1
-1:-1
2:3:1
0:-1
4:3:1
1:-1
0:1:1
-1:1
0:4:1
-1:-1
0:2:1
-1:1
0:2:1
-1:-1
1:2:1
-1:-1
2:1:1
0:-1
2:3:1
0:-1
6:1:1
1:-1
0:6:1
-1:-1
0:20:1
-1:1
0:0:1
-1:-1
0:1:1
-1:-1
4:4:1
1:-1
0:0:1
-1:-1
0:2:1
-1:-1
0:2:1
-1:-1
0:13:1
-1:1
0:3:1
-1:-1
0:0:1
-1:-1
4:3:1
1:-1
2:1:1
0:-1
0:2:1
-1:-1
4:1:1
1:-1
0:3:1
-1:-1
1:8:1
-1:1
0:3:1
-1:-1
2:2:1
0:-1
0:2:1
-1:-1
4:1:1
1:-1
0:35:1
-1:-1
1:1:1
-1:-1
0:1:1
-1:-1
0:2:1
-1:-1
4:4:1
1:-1
0:2:1
-1:1
0:5:1
-1:-1
0:3:1
-1:1
0:1:1
-1:-1
0:0:1
-1:-1
1:2:1
-1:-1
2:1:1
0:-1
2:3:1
0:-1
5:1:1
1:-1
0:16:1
-1:-1
0:3:1
-1:-1
0:0:1
-1:-1
0:0:1
-1:-1
2:3:1
0:-1
4:3:1
1:-1
0:3:1
-1:1
0:6:1
-1:-1
0:5:1
-1:-1
0:2:1
-1:1
0:2:1
-1:-1
0:1:1
-1:-1
6:2:1
1:-1
2:1:1
0:-1
6:1:1
1:-1
3:9:1
0:-1
0:5:1
-1:-1
0:0:1
-1:-1
1:2:1
-1:-1
0:1:1
-1:-1
0:2:1
-1:-1
0:1:1
-1:-1
0:10:1
-1:-1
0:2:1
-1:-1
0:1:1
-1:-1
2:2:1
0:-1
0:2:1
-1:-1
0:3:1
-1:-1
0:9:1
-1:-1
0:4:1
-1:1
2:2:1
0:-1
0:2:1
-1:-1
0:0:1
-1:-1
0:6:1
-1:-1
1:1:1
-1:-1
0:0:1
-1:-1
0:18:1
-1:-1
0:18:1
-1:1
2:3:1
0:1
6:3:2
1:-1
0:1:2
-1:-1
0:2:1
-1:-1
0:11:1
-1:-1
0:5:1
-1:-1
0:4:1
-1:-1
2:3:1
0:1
8:2:2
2:-1
0:1:2
-1:-1
0:1:1
-1:-1
0:4:1
-1:-1
0:2:1
-1:-1
0:0:1
-1:-1
0:0:1
-1:-1
0:0:1
-1:-1
2:3:1
0:-1
0:1:1
-1:-1
0:0:1
-1:-1
0:3:1
-1:-1
0:5:1
-1:-1
0:2:1
-1:-1
0:1:1
-1:-1
2:2:1
0:-1
8:2:1
2:-1
0:2:1
-1:-1
0:1:1
-1:-1
0:14:1
-1:-1
0:23:1
-1:1
1:3:1
-1:1
2:1:1
0:-1
8:3:1
2:-1
0:0:1
-1:-1
0:2:1
-1:-1
0:12:1
-1:-1
0:13:1
-1:-1
1:4:1
-1:-1
2:2:1
0:-1
6:5:1
1:-1
0:1:1
-1:-1
0:1:1
-1:-1
0:3:1
-1:-1
1:2:1
-1:-1
1:0:1
-1:-1
5:1:1
1:-1
7:2:1
1:-1
0:0:1
-1:-1
1:3:1
-1:-1
0:1:1
-1:-1
0:5:1
-1:-1
0:0:1
-1:-1
0:0:1
-1:-1
2:0:1
0:-1
8:3:1
2:-1
0:0:1
-1:-1
0:1:1
-1:-1
0:4:1
-1:-1
0:1:1
-1:-1
0:0:1
-1:-1
2:2:1
0:-1
8:2:1
2:-1
0:1:1
-1:-1
0:2:1
-1:-1
0:20:1
-1:-1
0:27:1
-1:1
0:0:1
-1:-1
2:1:1
0:-1
8:4:1
2:-1
0:1:1
-1:-1
0:0:1
-1:-1
0:4:1
-1:-1
0:3:1
-1:-1
0:0:1
-1:-1
0:0:1
-1:-1
2:2:1
0:-1
8:2:1
2:-1
0:0:1
-1:-1
0:5:1
-1:-1
0:30:1
-1:1
0:10:1
-1:-1
0:3:1
-1:1
0:0:1
-1:-1
0:15:1
-1:-1
0:0:1
-1:-1
0:0:1
-1:-1
0:1:1
-1:-1
0:0:1
-1:-1
0:13:1
-1:-1
0:7:1
-1:-1
0:9:1
-1:1
0:34:1
-1:-1
0:1:1
-1:-1
1:7:1
-1:-1
1:1:1
-1:-1
0:1:1
-1:-1
0:1:1
-1:-1
0:6:1
-1:-1
0:1:1
-1:-1
0:2:1
-1:-1
0:5:1
-1:-1
0:2:1
-1:1
0:1:1
-1:-1
0:6:1
-1:-1
1:1:1
-1:-1
0:5:1
-1:-1
0:7:1
-1:-1
0:3:1
-1:-1
0:6:1
-1:-1
0:1:1
-1:-1
1:2:1
-1:1
0:6:1
-1:-1
0:3:1
-1:1
0:3:1
-1:1
0:6:1
-1:-1
0:1:1
-1:-1
1:3:1
-1:1
0:6:1
-1:-1
0:4:1
-1:1
0:3:1
-1:1
0:6:1
-1:-1
0:1:1
-1:-1
1:2:1
-1:1
0:7:1
-1:-1
0:1:1
-1:-1
0:2:1
-1:1
0:1:1
-1:-1
0:4:1
-1:1
0:1:1
-1:-1
0:0:1
-1:-1
0:0:1
-1:-1
0:0:1
-1:-1
0:1:1
-1:-1
0:0:1
-1:-1
0:0:1
-1:-1
0:0:1
-1:-1
0:1:1
-1:-1
0:0:1
-1:-1
0:0:1
-1:-1
2:0:1
0:-1
0:0:1
-1:-1
0:0:1
-1:-1
0:0:1
-1:-1
0:0:1
-1:-1
0:0:1
-1:-1
0:0:1
-1:-1
0:0:1
-1:-1
0:0:1
-1:-1
0:0:1
-1:-1
0:0:1
-1:-1
0:0:1
-1:-1
0:2:1
-1:-1
0:0:1
-1:-1
0:0:1
-1:-1
0:1:1
-1:-1
0:0:1
-1:-1
0:0:1
-1:-1
0:0:1
-1:-1
1:0:1
-1:-1
0:0:1
-1:-1
0:8:1
-1:-1
0:6:1
-1:-1
0:21:1
-1:1
3:19:1
0:1
0:9:2
-1:-1
0:9:1
-1:1
0:4:1
-1:1
0:6:1
-1:-1
1:5:1
-1:-1
0:6:1
-1:1
0:5:1
-1:1
0:9:1
-1:-1
5:1:1
1:-1
2:8:1
0:1
7:2:2
1:-1
4:6:2
1:1
2:7:3
0:0
0:3:3
-1:-1
0:8:2
-1:-1
5:2:1
1:-1
2:6:1
0:1
0:5:2
-1:-1
0:11:1
-1:-1
2:5:1
0:1
2:7:2
0:0
0:3:2
-1:-1
2:5:1
0:-1
0:7:1
-1:1
2:3:1
0:-1
4:5:1
1:1
3:8:2
0:0
1:2:2
-1:-1
3:5:1
0:-1
2:7:1
0:1
3:4:2
0:-1
0:9:2
-1:1
1:6:2
-1:-1
7:2:1
1:-1
7:2:1
1:1
0:9:2
-1:1
1:8:2
-1:0
4:2:1
1:-1
0:5:1
-1:1
7:11:1
1:-1
2:7:1
0:-1
0:3:1
-1:-1
2:3:1
0:-1
0:7:1
-1:1
0:3:1
-1:1
0:2:1
-1:-1
0:3:1
-1:-1
2:25:1
0:1
0:9:2
-1:0
0:0:1
-1:-1
0:3:1
-1:-1
3:10:1
0:-1
0:3:1
-1:-1
0:15:1
-1:-1
0:0:1
-1:-1
0:32:1
-1:-1
0:5:1
-1:1
0:2:1
-1:-1
6:3:1
1:-1
6:2:1
1:-1
0:2:1
-1:-1
0:4:1
-1:-1
0:1:1
-1:-1
2:2:1
0:-1
0:6:1
-1:1
0:3:1
-1:-1
0:4:1
-1:-1
0:3:1
-1:-1
0:4:1
-1:-1
3:2:1
0:-1
0:2:1
-1:-1
3:2:1
0:-1
1:6:1
-1:-1
0:4:1
-1:1
0:3:1
-1:-1
0:0:1
-1:-1
3:2:1
0:-1
0:2:1
-1:-1
0:2:1
-1:-1
0:0:1
-1:-1
0:3:1
-1:-1
0:0:1
-1:-1
2:2:1
0:-1
0:2:1
-1:-1
5:2:1
1:-1
0:5:1
-1:-1
1:4:1
-1:1
0:1:1
-1:-1
5:3:1
1:-1
0:0:1
-1:-1
0:2:1
-1:-1
0:28:1
-1:-1
0:2:1
-1:-1
0:0:1
-1:-1
3:2:1
0:-1
0:2:1
-1:-1
5:1:1
1:-1
1:16:1
-1:-1
0:5:1
-1:1
0:0:1
-1:-1
0:0:1
-1:-1
4:3:1
1:-1
2:1:1
0:-1
0:1:1
-1:-1
6:1:1
1:-1
0:5:1
-1:-1
0:3:1
-1:-1
0:0:1
-1:-1
4:2:1
1:-1
2:1:1
0:-1
4:3:1
1:-1
0:1:1
-1:1
0:8:1
-1:-1
0:1:1
-1:-1
2:2:1
0:-1
4:3:1
1:-1
5:0:1
1:-1
0:3:1
-1:-1
0:1:1
-1:-1
0:0:1
-1:-1
0:0:1
-1:-1
0:2:1
-1:-1
6:3:1
1:-1
4:1:1
1:-1
0:1:1
-1:1
0:16:1
-1:-1
0:1:1
-1:1
0:2:1
-1:-1
2:3:1
0:-1
0:1:1
-1:-1
0:1:1
-1:-1
0:19:1
-1:-1
0:3:1
-1:-1
0:0:1
-1:-1
2:3:1
0:-1
4:2:1
1:-1
4:1:1
1:-1
0:20:1
-1:-1
0:7:1
-1:-1
0:0:1
-1:-1
2:2:1
0:-1
0:2:1
-1:-1
0:2:1
-1:-1
0:3:1
-1:-1
2:1:1
0:-1
0:4:1
-1:-1
0:1:1
-1:-1
0:2:1
-1:1
5:0:1
1:-1
0:2:1
-1:-1
0:4:1
-1:-1
0:1:1
-1:-1
0:3:1
-1:-1
0:0:1
-1:-1
3:1:1
0:-1
2:3:1
0:-1
1:1:1
-1:-1
1:6:1
-1:1
0:2:1
-1:-1
0:5:1
-1:-1
0:4:1
-1:-1
0:0:1
-1:-1
6:3:1
1:-1
4:1:1
1:-1
4:2:1
1:-1
0:1:1
-1:-1
0:8:1
-1:-1
0:4:1
-1:-1
0:0:1
-1:-1
0:1:1
-1:-1
2:2:1
0:1
6:3:2
1:-1
1:1:2
-1:-1
0:1:1
-1:-1
0:14:1
-1:-1
0:15:1
-1:1
2:3:1
0:-1
3:1:1
0:-1
8:1:1
2:-1
2:5:1
0:-1
0:1:1
-1:-1
0:14:1
-1:-1
0:2:1
-1:-1
0:0:1
-1:-1
2:2:1
0:-1
8:3:1
2:-1
0:2:1
-1:-1
0:1:1
-1:-1
0:13:1
-1:-1
0:26:1
-1:-1
2:3:1
0:-1
3:2:1
0:-1
0:0:1
-1:-1
0:2:1
-1:-1
0:10:1
-1:-1
0:2:1
-1:-1
1:3:1
-1:-1
0:2:1
-1:-1
0:2:1
-1:-1
1:3:1
-1:-1
1:1:1
-1:-1
0:11:1
-1:-1
0:3:1
-1:-1
0:0:1
-1:-1
0:1:1
-1:-1
2:2:1
0:1
8:3:2
2:-1
0:3:2
-1:-1
0:0:1
-1:-1
0:4:1
-1:-1
0:3:1
-1:-1
0:1:1
-1:-1
0:0:1
-1:-1
6:2:1
1:-1
4:1:1
1:-1
8:1:1
2:-1
1:2:1
-1:-1
0:2:1
-1:-1
0:6:1
-1:-1
0:5:1
-1:-1
0:2:1
-1:1
2:3:1
0:-1
8:1:1
2:-1
1:1:1
-1:-1
0:1:1
-1:-1
0:5:1
-1:-1
0:1:1
-1:-1
0:0:1
-1:-1
2:1:1
0:-1
8:1:1
2:-1
1:2:1
-1:-1
0:1:1
-1:-1
1:16:1
-1:-1
0:37:1
-1:-1
2:0:1
0:-1
8:3:1
2:-1
0:1:1
-1:-1
0:0:1
-1:-1
0:1:1
-1:-1
0:0:1
-1:-1
6:2:1
1:-1
4:2:1
1:-1
6:2:1
1:-1
1:2:1
-1:-1
0:1:1
-1:-1
0:22:1
-1:-1
1:12:1
-1:1
0:0:1
-1:-1
1:2:1
-1:-1
2:1:1
0:-1
2:2:1
0:-1
1:3:1
-1:-1
0:0:1
-1:-1
0:18:1
-1:-1
0:6:1
-1:-1
0:1:1
-1:-1
6:3:1
1:-1
0:2:1
-1:-1
0:1:1
-1:-1
0:2:1
-1:-1
0:2:1
-1:-1
1:22:1
-1:-1
0:9:1
-1:-1
0:0:1
-1:-1
1:2:1
-1:-1
2:1:1
0:-1
0:3:1
-1:-1
0:0:1
-1:-1
0:1:1
-1:-1
0:7:1
-1:-1
0:14:1
-1:-1
0:3:1
-1:-1
6:2:1
1:-1
4:1:1
1:-1
8:1:1
2:-1
2:1:1
0:-1
0:3:1
-1:-1
0:19:1
-1:-1
0:3:1
-1:1
0:5:1
-1:-1
0:0:1
-1:-1
0:2:1
-1:-1
0:1:1
-1:-1
4:2:1
1:-1
1:1:1
-1:-1
0:1:1
-1:-1
0:16:1
-1:-1
0:4:1
-1:-1
5:1:1
1:-1
3:2:1
0:-1
8:1:1
2:-1
0:1:1
-1:-1
0:2:1
-1:-1
0:14:1
-1:-1
0:31:1
-1:1
2:1:1
0:-1
8:3:1
2:-1
0:1:1
-1:-1
0:2:1
-1:-1
0:3:1
-1:-1
2:4:1
0:1
4:2:2
1:-1
0:2:2
-1:0
1:1:1
-1:-1
0:1:1
-1:-1
0:2:1
-1:-1
2:4:1
0:-1
8:2:1
2:-1
0:2:1
-1:-1
0:1:1
-1:-1
0:4:1
-1:-1
0:17:1
-1:1
0:3:1
-1:-1
0:2:1
-1:1
0:2:1
-1:-1
2:2:1
0:-1
2:1:1
0:-1
0:2:1
-1:-1
0:7:1
-1:-1
0:1:1
-1:-1
0:3:1
-1:-1
0:0:1
-1:-1
1:2:1
-1:-1
2:1:1
0:-1
8:3:1
2:-1
0:0:1
-1:-1
0:2:1
-1:-1
0:5:1
-1:1
0:7:1
-1:-1
0:6:1
-1:-1
0:0:1
-1:-1
0:1:1
-1:-1
0:0:1
-1:-1
0:0:1
-1:-1
0:15:1
-1:-1
0:3:1
-1:-1
1:8:1
-1:-1
7:4:1
1:1
0:13:2
-1:-1
0:1:1
-1:-1
1:4:1
-1:-1
1:1:1
-1:-1
0:4:1
-1:-1
1:1:1
-1:-1
0:5:1
-1:-1
2:0:1
0:-1
0:3:1
-1:-1
0:4:1
-1:-1
0:1:1
-1:-1
1:2:1
-1:1
0:4:1
-1:-1
0:1:1
-1:-1
0:1:1
-1:-1
0:2:1
-1:-1
0:1:1
-1:-1
1:1:1
-1:-1
0:5:1
-1:-1
0:4:1
-1:-1
0:2:1
-1:1
0:5:1
-1:-1
0:1:1
-1:-1
1:2:1
-1:1
0:4:1
-1:-1
0:2:1
-1:1
0:2:1
-1:1
0:5:1
-1:-1
0:1:1
-1:-1
0:3:1
-1:1
0:4:1
-1:-1
0:2:1
-1:-1
0:2:1
-1:1
0:6:1
-1:-1
2:1:1
0:-1
0:1:1
-1:-1
0:0:1
-1:-1
0:0:1
-1:-1
0:0:1
-1:-1
0:0:1
-1:-1
0:0:1
-1:-1
0:0:1
-1:-1
0:0:1
-1:-1
2:0:1
0:-1
0:0:1
-1:-1
0:0:1
-1:-1
1:0:1
-1:-1
2:0:1
0:-1
0:0:1
-1:-1
0:0:1
-1:-1
0:0:1
-1:-1
0:0:1
-1:-1
0:0:1
-1:-1
0:0:1
-1:-1
0:0:1
-1:-1
0:1:1
-1:-1
0:0:1
-1:-1
0:0:1
-1:-1
0:0:1
-1:-1
0:0:1
-1:-1
0:0:1
-1:-1
0:0:1
-1:-1
0:0:1
-1:-1
2:0:1
0:-1
2:0:1
0:-1
2:2:1
0:-1
0:7:1
-1:-1
0:12:1
-1:1
0:16:1
-1:-1
5:12:1
1:-1
0:7:1
-1:-1
2:7:1
0:1
3:2:2
0:0
5:7:2
1:1
0:9:3
-1:0
0:2:2
-1:-1
5:12:1
1:-1
2:5:1
0:-1
0:2:1
-1:-1
1:6:1
-1:-1
1:7:1
-1:-1
0:3:1
-1:-1
0:4:1
-1:-1
0:6:1
-1:1
1:6:1
-1:-1
7:2:1
1:-1
6:2:1
1:-1
0:11:1
-1:1
0:5:1
-1:-1
0:4:1
-1:1
0:15:1
-1:-1
1:7:1
-1:-1
2:7:1
0:-1
0:3:1
-1:-1
2:3:1
0:1
5:8:2
1:0
3:9:3
0:0
1:3:3
-1:-1
3:9:2
0:-1
2:9:2
0:0
0:2:2
-1:-1
2:3:1
0:-1
2:9:1
0:1
2:8:2
0:-1
2:2:2
0:-1
1:5:2
-1:-1
5:6:1
1:-1
6:6:1
1:-1
3:6:1
0:-1
0:3:1
-1:-1
2:1:1
0:-1
0:10:1
-1:1
0:4:1
-1:-1
0:4:1
-1:1
0:5:1
-1:1
1:9:1
-1:-1
0:8:1
-1:1
0:3:1
-1:1
0:26:1
-1:1
2:15:1
0:1
0:6:2
-1:-1
0:8:1
-1:1
0:8:1
-1:1
3:0:1
0:-1
0:6:1
-1:-1
0:4:1
-1:-1
1:5:1
-1:-1
0:11:1
-1:1
3:8:1
0:-1
0:1:1
-1:-1
0:2:1
-1:-1
0:1:1
-1:-1
0:2:1
-1:-1
1:7:1
-1:-1
0:9:1
-1:1
1:7:1
-1:1
0:5:1
-1:1
0:1:1
-1:-1
0:4:1
-1:1
0:8:1
-1:-1
0:10:1
-1:-1
0:2:1
-1:1
0:8:1
-1:-1
0:8:1
-1:1
0:4:1
-1:-1
0:4:1
-1:-1
0:2:1
-1:-1
4:7:1
1:-1
0:5:1
-1:-1
5:8:1
1:-1
0:6:1
-1:-1
1:3:1
-1:-1
0:3:1
-1:-1
1:3:1
-1:-1
0:6:1
-1:-1
0:5:1
-1:-1
0:5:1
-1:1
1:4:1
-1:-1
0:2:1
-1:-1
1:1:1
-1:1
0:11:1
-1:1
0:8:1
-1:1
2:4:1
0:1
0:4:2
-1:-1
0:2:1
-1:1
2:5:1
0:1
0:8:2
-1:1
0:8:2
-1:1
0:4:2
-1:0
0:5:1
-1:-1
0:2:1
-1:-1
1:2:1
-1:1
0:9:1
-1:1
0:7:1
-1:1
0:4:1
-1:1
0:5:1
-1:-1
0:4:1
-1:1
2:4:1
0:-1
0:9:1
-1:1
3:8:1
0:1
0:0:2
-1:-1
1:5:1
-1:-1
0:2:1
-1:-1
0:7:1
-1:1
0:1:1
-1:-1
0:7:1
-1:1
0:2:1
-1:1
1:1:1
-1:-1
0:4:1
-1:-1
1:2:1
-1:-1
0:9:1
-1:1
3:7:1
0:-1
3:6:1
0:1
0:0:2
-1:-1
0:7:1
-1:1
0:3:1
-1:1
2:5:1
0:-1
3:13:1
0:1
0:12:2
-1:-1
0:3:1
-1:1
0:5:1
-1:1
0:14:1
-1:1
0:11:1
-1:-1
0:1:1
-1:-1
0:4:1
-1:1
0:5:1
-1:-1
1:9:1
-1:1
2:4:1
0:-1
0:2:1
-1:-1
2:6:1
0:1
0:9:2
-1:-1
1:1:1
-1:-1
2:1:1
0:-1
0:2:1
-1:-1
0:4:1
-1:-1
6:7:1
1:1
0:4:2
-1:-1
0:4:1
-1:1
1:7:1
-1:-1
9:1:1
2:-1
0:2:1
-1:-1
0:10:1
-1:-1
6:4:1
1:-1
0:4:1
-1:-1
3:4:1
0:-1
0:7:1
-1:-1
0:2:1
-1:-1
0:22:1
-1:-1
0:27:1
-1:1
0:2:1
-1:-1
0:1:1
-1:1
0:18:1
-1:1
0:1:1
-1:-1
0:1:1
-1:-1
4:5:1
1:-1
0:3:1
-1:-1
0:6:1
-1:-1
0:26:1
-1:-1
0:2:1
-1:-1
0:6:1
-1:1
0:4:1
-1:-1
0:3:1
-1:-1
0:22:1
-1:-1
2:16:1
0:-1
0:3:1
-1:1
0:0:1
-1:-1
0:2:1
-1:-1
0:8:1
-1:1
0:2:1
-1:1
0:26:1
-1:-1
1:4:1
-1:1
0:0:1
-1:-1
0:6:1
-1:-1
2:12:1
0:1
0:1:2
-1:-1
0:1:1
-1:-1
0:1:1
-1:-1
0:18:1
-1:1
0:6:1
-1:1
0:8:1
-1:1
0:14:1
-1:1
0:1:1
-1:-1
0:2:1
-1:1
0:2:1
-1:-1
0:2:1
-1:1
5:2:1
1:1
0:1:2
-1:-1
0:1:1
-1:-1
1:1:1
-1:1
0:1:1
-1:-1
0:2:1
-1:1
0:1:1
-1:-1
0:0:1
-1:-1
0:0:1
-1:-1
1:1:1
-1:-1
0:1:1
-1:-1
0:2:1
-1:1
1:2:1
-1:1
0:0:1
-1:-1
0:1:1
-1:-1
1:2:1
-1:1
0:7:1
-1:-1
0:1:1
-1:-1
0:2:1
-1:1
0:0:1
-1:-1
0:1:1
-1:-1
1:2:1
-1:1
0:1:1
-1:-1
0:2:1
-1:1
0:3:1
-1:1
0:1:1
-1:-1
0:0:1
-1:-1
1:1:1
-1:-1
0:1:1
-1:-1
0:4:1
-1:1
0:2:1
-1:1
0:2:1
-1:-1
0:2:1
-1:1
0:7:1
-1:-1
2:0:1
0:-1
0:0:1
-1:-1
0:0:1
-1:-1
0:0:1
-1:-1
2:0:1
0:-1
0:0:1
-1:-1
0:0:1
-1:-1
0:0:1
-1:-1
0:0:1
-1:-1
0:0:1
-1:-1
0:0:1
-1:-1
0:0:1
-1:-1
0:0:1
-1:-1
0:0:1
-1:-1
2:0:1
0:-1
0:0:1
-1:-1
0:0:1
-1:-1
0:0:1
-1:-1
0:0:1
-1:-1
1:0:1
-1:-1
0:0:1
-1:-1
0:1:1
-1:-1
0:0:1
-1:-1
0:0:1
-1:-1
0:1:1
-1:-1
0:0:1
-1:-1
2:0:1
0:-1
0:0:1
-1:-1
0:0:1
-1:-1
0:0:1
-1:-1
0:0:1
-1:-1
0:0:1
-1:-1
2:11:1
0:-1
0:14:1
-1:-1
1:21:1
-1:1
0:11:1
-1:-1
0:6:1
-1:-1
0:14:1
-1:-1
0:2:1
-1:-1
0:7:1
-1:-1
0:1:1
-1:1
0:5:1
-1:-1
4:3:1
1:-1
0:3:1
-1:-1
0:2:1
-1:-1
0:7:1
-1:-1
0:2:1
-1:-1
0:6:1
-1:-1
0:9:1
-1:-1
0:7:1
-1:-1
0:8:1
-1:1
0:4:1
-1:-1
4:4:1
1:-1
6:5:1
1:1
0:3:2
-1:-1
3:3:1
0:-1
1:8:1
-1:-1
0:4:1
-1:-1
1:2:1
-1:-1
5:5:1
1:-1
0:5:1
-1:1
5:3:1
1:-1
2:5:1
0:-1
0:4:1
-1:-1
2:17:1
0:1
4:3:2
1:0
10:4:3
2:0
0:6:4
-1:0
2:3:3
0:-1
4:1:3
1:-1
3:3:3
0:-1
4:2:3
1:0
0:5:4
-1:0
0:1:3
-1:-1
9:1:2
2:-1
0:4:2
-1:0
2:3:1
0:-1
1:3:1
-1:1
0:2:1
-1:-1
0:2:1
-1:-1
1:9:1
-1:-1
0:5:1
-1:-1
0:2:1
-1:-1
1:3:1
-1:1
2:3:1
0:1
6:4:2
1:-1
0:5:2
-1:-1
0:7:1
-1:-1
4:4:1
1:1
3:4:2
0:-1
1:1:2
-1:-1
0:16:1
-1:1
0:17:1
-1:1
0:1:1
-1:-1
0:8:1
-1:1
4:2:1
1:-1
0:2:1
-1:-1
0:27:1
-1:-1
0:7:1
-1:-1
0:2:1
-1:-1
2:8:1
0:-1
1:3:1
-1:-1
0:7:1
-1:-1
0:2:1
-1:-1
0:24:1
-1:-1
0:2:1
-1:-1
0:6:1
-1:-1
0:2:1
-1:-1
3:4:1
0:-1
0:6:1
-1:-1
0:14:1
-1:1
0:12:1
-1:-1
0:4:1
-1:1
1:2:1
-1:-1
0:1:1
-1:-1
4:3:1
1:-1
0:0:1
-1:-1
0:3:1
-1:-1
0:2:1
-1:-1
0:13:1
-1:-1
4:21:1
1:-1
2:1:1
0:-1
0:3:1
-1:-1
1:3:1
-1:-1
3:1:1
0:-1
0:18:1
-1:-1
0:16:1
-1:-1
1:3:1
-1:-1
2:2:1
0:-1
0:2:1
-1:-1
0:2:1
-1:-1
2:2:1
0:-1
0:7:1
-1:-1
5:3:1
1:1
0:3:2
-1:1
4:2:2
1:-1
1:2:2
-1:0
0:0:1
-1:-1
2:18:1
0:-1
0:2:1
-1:-1
3:1:1
0:-1
2:1:1
0:-1
4:3:1
1:-1
5:1:1
1:-1
4:2:1
1:-1
0:14:1
-1:-1
1:6:1
-1:-1
2:2:1
0:-1
4:3:1
1:-1
3:3:1
0:1
0:2:2
-1:-1
4:19:1
1:1
2:1:2
0:-1
4:4:2
1:0
2:3:3
0:0
3:0:3
0:-1
2:5:3
0:0
2:2:3
0:0
0:1:3
-1:-1
1:3:2
-1:-1
3:1:1
0:-1
0:13:1
-1:-1
0:1:1
-1:-1
5:3:1
1:-1
0:0:1
-1:-1
2:4:1
0:-1
0:1:1
-1:-1
6:8:1
1:-1
2:0:1
0:-1
2:3:1
0:-1
2:1:1
0:-1
5:3:1
1:-1
3:0:1
0:-1
2:3:1
0:-1
2:1:1
0:-1
2:3:1
0:-1
3:3:1
0:-1
0:2:1
-1:-1
0:5:1
-1:-1
1:10:1
-1:-1
2:3:1
0:-1
2:2:1
0:-1
2:6:1
0:-1
0:1:1
-1:-1
0:13:1
-1:-1
0:1:1
-1:-1
1:0:1
-1:-1
0:0:1
-1:-1
0:1:1
-1:-1
0:1:1
-1:-1
0:1:1
-1:-1
1:2:1
-1:-1
0:2:1
-1:-1
0:7:1
-1:-1
0:0:1
-1:-1
0:0:1
-1:-1
2:2:1
0:-1
2:1:1
0:-1
0:0:1
-1:-1
0:3:1
-1:-1
0:4:1
-1:-1
0:9:1
-1:-1
0:1:1
-1:-1
0:0:1
-1:-1
0:0:1
-1:-1
2:2:1
0:-1
2:2:1
0:-1
2:0:1
0:-1
0:3:1
-1:-1
0:13:1
-1:-1
0:3:1
-1:-1
0:0:1
-1:-1
0:0:1
-1:-1
0:0:1
-1:-1
2:2:1
0:-1
8:2:1
2:-1
2:2:1
0:-1
0:1:1
-1:-1
0:23:1
-1:-1
1:14:1
-1:1
0:3:1
-1:-1
2:3:1
0:1
8:2:2
2:-1
2:3:2
0:-1
0:2:2
-1:-1
0:39:1
-1:-1
2:24:1
0:-1
0:2:1
-1:-1
2:1:1
0:-1
0:1:1
-1:-1
0:0:1
-1:-1
0:19:1
-1:-1
0:3:1
-1:1
0:1:1
-1:1
2:3:1
0:-1
8:1:1
2:-1
2:1:1
0:-1
0:3:1
-1:-1
0:9:1
-1:-1
0:19:1
-1:-1
0:0:1
-1:-1
0:0:1
-1:-1
2:2:1
0:-1
2:2:1
0:-1
0:1:1
-1:-1
0:1:1
-1:-1
0:13:1
-1:-1
1:3:1
-1:-1
0:1:1
-1:-1
2:3:1
0:1
2:2:2
0:-1
1:2:2
-1:-1
0:2:1
-1:-1
0:15:1
-1:-1
2:2:1
0:1
6:4:2
1:-1
0:1:2
-1:-1
0:0:1
-1:-1
0:15:1
-1:-1
0:3:1
-1:1
0:0:1
-1:-1
6:3:1
1:-1
6:3:1
1:-1
7:1:1
1:1
2:2:2
0:-1
0:1:2
-1:-1
1:5:1
-1:-1
0:6:1
-1:-1
0:9:1
-1:-1
2:7:1
0:-1
2:5:1
0:-1
3:2:1
0:-1
0:13:1
-1:-1
0:5:1
-1:-1
0:6:1
-1:-1
1:12:1
-1:1
0:12:1
-1:1
2:3:1
0:1
0:2:2
-1:-1
0:11:1
-1:1
0:6:1
-1:-1
2:2:1
0:-1
0:5:1
-1:-1
5:5:1
1:1
0:2:2
-1:-1
2:2:1
0:-1
0:1:1
-1:-1
1:4:1
-1:-1
0:10:1
-1:1
2:7:1
0:-1
4:3:1
1:-1
0:3:1
-1:-1
0:3:1
-1:1
1:3:1
-1:-1
0:10:1
-1:1
0:6:1
-1:1
3:6:1
0:1
1:2:2
-1:-1
0:2:1
-1:-1
0:14:1
-1:-1
0:1:1
-1:-1
0:8:1
-1:1
0:4:1
-1:1
1:4:1
-1:-1
0:5:1
-1:-1
1:2:1
-1:-1
0:7:1
-1:1
0:5:1
-1:-1
0:5:1
-1:1
0:4:1
-1:-1
0:1:1
-1:-1
3:26:1
0:1
0:11:2
-1:-1
0:1:1
-1:-1
0:9:1
-1:1
0:2:1
-1:1
0:6:1
-1:-1
0:3:1
-1:1
1:6:1
[...]
0:6:1
-1:-1
0:10:1
-1:1
0:18:1
-1:1
2:21:1
0:1
0:4:2
-1:-1
3:13:1
0:1
0:2:2
-1:-1
2:4:1
0:1
0:5:2
-1:0
1:8:1
-1:-1
5:4:1
1:-1
0:4:1
-1:1
5:7:1
1:-1
0:7:1
-1:-1
0:3:1
-1:-1
0:1:1
-1:-1
1:7:1
-1:-1
2:6:1
0:-1
6:4:1
1:-1
5:3:1
1:1
0:8:2
-1:1
0:6:2
-1:0
0:7:1
-1:-1
1:3:1
-1:-1
4:7:1
1:1
2:7:2
0:0
0:2:2
-1:-1
1:5:1
-1:-1
3:2:1
0:-1
3:8:1
0:1
6:1:2
1:-1
0:2:2
-1:-1
1:8:1
-1:-1
1:7:1
-1:1
0:2:1
-1:-1
0:11:1
-1:-1
1:13:1
-1:1
2:2:1
0:-1
1:7:1
-1:1
0:3:1
-1:-1
3:2:1
0:-1
2:8:1
0:-1
0:5:1
-1:-1
2:5:1
0:1
2:4:2
0:1
0:8:3
-1:1
0:5:3
-1:-1
0:3:2
-1:0
1:2:1
-1:-1
2:10:1
0:-1
1:7:1
-1:-1
0:3:1
-1:-1
0:3:1
-1:-1
1:9:1
-1:-1
2:8:1
0:1
2:2:2
0:-1
0:1:2
-1:-1
0:24:1
-1:1
0:0:1
-1:-1
0:3:1
-1:-1
2:8:1
0:-1
0:2:1
-1:-1
0:9:1
-1:-1
0:3:1
-1:-1
0:0:1
-1:-1
0:0:1
-1:-1
3:1:1
0:-1
4:2:1
1:1
0:0:2
-1:-1
3:2:1
0:-1
0:5:1
-1:-1
0:1:1
-1:-1
0:3:1
-1:-1
0:0:1
-1:-1
0:1:1
-1:-1
0:1:1
-1:-1
4:3:1
1:-1
7:1:1
1:1
2:3:2
0:1
0:2:3
-1:-1
0:36:2
-1:-1
0:4:1
-1:1
0:0:1
-1:-1
4:2:1
1:-1
2:1:1
0:-1
0:2:1
-1:-1
0:1:1
-1:-1
0:9:1
-1:-1
4:5:1
1:1
2:2:2
0:-1
4:3:2
1:0
0:2:3
-1:0
0:13:2
-1:-1
0:17:1
-1:-1
1:2:1
-1:-1
3:1:1
0:-1
0:1:1
-1:-1
5:1:1
1:-1
0:7:1
-1:-1
0:0:1
-1:-1
0:0:1
-1:-1
0:1:1
-1:-1
0:1:1
-1:-1
5:3:1
1:-1
0:0:1
-1:-1
0:1:1
-1:-1
0:7:1
-1:-1
0:7:1
-1:-1
0:0:1
-1:-1
0:1:1
-1:-1
4:2:1
1:-1
2:0:1
0:-1
2:3:1
0:-1
5:2:1
1:-1
0:21:1
-1:-1
0:5:1
-1:1
4:1:1
1:-1
3:1:1
0:-1
0:2:1
-1:-1
2:1:1
0:-1
3:18:1
0:-1
0:17:1
-1:-1
0:2:1
-1:1
5:2:1
1:-1
0:2:1
-1:-1
1:3:1
-1:-1
0:1:1
-1:-1
0:5:1
-1:-1
0:0:1
-1:-1
0:2:1
-1:-1
6:3:1
1:-1
0:0:1
-1:-1
0:1:1
-1:-1
0:25:1
-1:-1
0:6:1
-1:1
4:3:1
1:-1
2:0:1
0:-1
2:3:1
0:-1
0:3:1
-1:-1
0:10:1
-1:-1
0:2:1
-1:-1
0:3:1
-1:-1
0:0:1
-1:-1
2:5:1
0:-1
8:1:1
2:-1
0:4:1
-1:-1
0:4:1
-1:-1
0:6:1
-1:-1
2:3:1
0:-1
0:2:1
-1:-1
0:0:1
-1:-1
0:0:1
-1:-1
2:1:1
0:-1
0:3:1
-1:-1
1:2:1
-1:-1
0:0:1
-1:-1
0:16:1
-1:-1
0:7:1
-1:-1
0:0:1
-1:-1
2:2:1
0:-1
8:2:1
2:-1
0:1:1
-1:-1
0:3:1
-1:-1
2:9:1
0:-1
0:3:1
-1:-1
0:1:1
-1:1
0:0:1
-1:-1
0:0:1
-1:-1
2:3:1
0:-1
8:1:1
2:-1
0:1:1
-1:-1
0:2:1
-1:-1
3:24:1
0:-1
0:15:1
-1:1
0:0:1
-1:-1
2:3:1
0:-1
2:1:1
0:-1
0:1:1
-1:-1
0:2:1
-1:-1
0:8:1
-1:-1
0:1:1
-1:-1
0:0:1
-1:-1
0:0:1
-1:-1
2:1:1
0:-1
8:2:1
2:-1
1:3:1
-1:-1
0:1:1
-1:-1
2:12:1
0:-1
0:21:1
-1:-1
0:0:1
-1:-1
2:2:1
0:-1
8:2:1
2:-1
0:0:1
-1:-1
0:1:1
-1:-1
0:39:1
-1:-1
0:0:1
-1:-1
2:2:1
0:-1
8:2:1
2:-1
0:1:1
-1:-1
0:2:1
-1:-1
0:42:1
-1:-1
6:12:1
1:1
4:2:2
1:-1
6:2:2
1:0
0:1:3
-1:-1
0:1:2
-1:-1
0:3:1
-1:-1
0:5:1
-1:-1
0:1:1
-1:-1
0:0:1
-1:-1
0:0:1
-1:-1
1:2:1
-1:-1
2:2:1
0:-1
3:3:1
0:-1
1:1:1
-1:-1
0:1:1
-1:-1
0:7:1
-1:-1
0:5:1
-1:-1
0:0:1
-1:-1
5:1:1
1:-1
3:2:1
0:-1
8:1:1
2:-1
0:1:1
-1:-1
0:0:1
-1:-1
0:4:1
-1:-1
0:4:1
-1:-1
0:0:1
-1:-1
0:0:1
-1:-1
0:0:1
-1:-1
2:1:1
0:-1
8:2:1
2:-1
1:3:1
-1:-1
0:1:1
-1:-1
0:33:1
-1:-1
0:0:1
-1:-1
0:1:1
-1:-1
0:2:1
-1:1
0:2:1
-1:-1
5:1:1
1:-1
0:0:1
-1:-1
0:1:1
-1:-1
0:18:1
-1:-1
0:24:1
-1:1
0:1:1
-1:-1
6:2:1
1:-1
0:1:1
-1:-1
4:1:1
1:-1
0:1:1
-1:-1
0:2:1
-1:-1
0:3:1
-1:-1
0:12:1
-1:1
1:3:1
-1:-1
0:3:1
-1:1
0:1:1
-1:-1
2:2:1
0:1
6:4:2
1:-1
0:1:2
-1:-1
0:0:1
-1:-1
0:14:1
-1:-1
0:4:1
-1:-1
0:0:1
-1:-1
0:0:1
-1:-1
2:3:1
0:-1
8:1:1
2:-1
2:2:1
0:-1
0:3:1
-1:-1
1:6:1
-1:1
0:3:1
-1:-1
0:2:1
-1:-1
0:4:1
-1:-1
0:6:1
-1:1
0:5:1
-1:-1
0:0:1
-1:-1
0:0:1
-1:-1
0:2:1
-1:-1
0:13:1
-1:-1
1:4:1
-1:-1
4:9:1
1:-1
0:17:1
-1:-1
0:16:1
-1:-1
0:1:1
-1:-1
0:5:1
-1:-1
1:2:1
-1:1
0:6:1
-1:-1
1:1:1
-1:-1
0:5:1
-1:-1
0:1:1
-1:-1
0:1:1
-1:-1
0:1:1
-1:-1
1:2:1
-1:1
0:5:1
-1:-1
0:12:1
-1:-1
0:2:1
-1:1
0:4:1
-1:-1
0:1:1
-1:-1
1:2:1
-1:1
0:6:1
-1:-1
0:1:1
-1:-1
1:2:1
-1:-1
0:8:1
-1:-1
0:2:1
-1:1
0:2:1
-1:1
0:5:1
-1:-1
0:1:1
-1:-1
0:2:1
-1:1
0:5:1
-1:-1
0:1:1
-1:-1
1:2:1
-1:1
0:5:1
-1:-1
0:0:1
-1:-1
0:1:1
-1:-1
0:2:1
-1:1
0:4:1
-1:-1
0:2:1
-1:-1
0:0:1
-1:-1
0:0:1
-1:-1
0:0:1
-1:-1
0:0:1
-1:-1
0:0:1
-1:-1
0:0:1
-1:-1
0:0:1
-1:-1
0:0:1
-1:-1
0:0:1
-1:-1
0:0:1
-1:-1
0:0:1
-1:-1
0:0:1
-1:-1
0:0:1
-1:-1
0:0:1
-1:-1
0:0:1
-1:-1
0:0:1
-1:-1
0:0:1
-1:-1
0:0:1
-1:-1
0:0:1
-1:-1
0:0:1
-1:-1
0:0:1
-1:-1
0:0:1
-1:-1
0:0:1
-1:-1
0:0:1
-1:-1
0:0:1
-1:-1
0:0:1
-1:-1
0:0:1
-1:-1
0:2:1
-1:-1
0:0:1
-1:-1
0:0:1
-1:-1
0:1:1
-1:-1
0:1:1
-1:1
0:1:1
-1:-1
0:3:1
-1:1
1:2:1
-1:-1
0:8:1
-1:-1
0:7:1
-1:-1
0:10:1
-1:1
0:21:1
-1:-1
0:15:1
-1:-1
1:13:1
-1:1
0:10:1
-1:-1
0:4:1
-1:1
5:6:1
1:-1
3:5:1
0:1
0:2:2
-1:-1
6:4:1
1:-1
2:9:1
0:1
3:4:2
0:-1
0:4:2
-1:-1
1:7:1
-1:1
6:3:1
1:-1
4:6:1
1:1
1:5:2
-1:0
0:3:1
-1:-1
4:2:1
1:1
1:4:2
-1:-1
0:5:1
-1:-1
0:5:1
-1:-1
0:6:1
-1:1
1:5:1
-1:-1
5:8:1
1:1
2:6:2
0:0
0:1:2
-1:-1
0:7:1
-1:-1
2:5:1
0:1
3:5:2
0:0
0:2:2
-1:-1
0:12:1
-1:-1
2:6:1
0:1
1:7:2
-1:-1
7:3:1
1:-1
6:3:1
1:1
0:8:2
-1:1
1:7:2
-1:-1
4:3:1
1:-1
3:4:1
0:1
1:8:2
-1:1
0:7:2
-1:0
0:1:1
-1:-1
2:4:1
0:-1
0:6:1
-1:1
0:7:1
-1:-1
0:3:1
-1:1
2:3:1
0:-1
0:7:1
-1:1
0:5:1
-1:1
0:6:1
-1:1
0:1:1
-1:-1
0:14:1
-1:-1
4:8:1
1:-1
0:0:1
-1:-1
0:0:1
-1:-1
0:0:1
-1:-1
0:9:1
-1:-1
2:8:1
0:-1
0:8:1
-1:-1
0:4:1
-1:-1
0:0:1
-1:-1
0:1:1
-1:-1
5:3:1
1:1
0:2:2
-1:-1
0:1:1
-1:-1
1:1:1
-1:1
0:1:1
-1:-1
1:3:1
-1:-1
0:2:1
-1:-1
0:1:1
-1:-1
0:2:1
-1:1
4:1:1
1:-1
0:0:1
-1:-1
0:1:1
-1:-1
1:2:1
-1:1
0:2:1
-1:-1
0:4:1
-1:1
0:1:1
-1:-1
0:1:1
-1:-1
0:1:1
-1:-1
1:2:1
-1:1
0:3:1
-1:-1
0:2:1
-1:1
0:2:1
-1:1
0:2:1
-1:-1
2:3:1
0:-1
0:1:1
-1:-1
0:1:1
-1:-1
0:7:1
-1:-1
0:2:1
-1:1
0:1:1
-1:-1
0:1:1
-1:-1
1:3:1
-1:1
0:1:1
-1:-1
0:2:1
-1:1
0:3:1
-1:1
0:2:1
-1:-1
0:7:1
-1:-1
0:0:1
-1:-1
0:0:1
-1:-1
2:0:1
0:-1
0:0:1
-1:-1
0:0:1
-1:-1
0:0:1
-1:-1
0:0:1
-1:-1
0:0:1
-1:-1
0:0:1
-1:-1
0:0:1
-1:-1
2:0:1
0:-1
2:0:1
0:-1
0:1:1
-1:-1
0:0:1
-1:-1
0:0:1
-1:-1
2:0:1
0:-1
0:0:1
-1:-1
2:0:1
0:-1
0:0:1
-1:-1
0:2:1
-1:-1
0:0:1
-1:-1
0:0:1
-1:-1
0:0:1
-1:-1
0:2:1
-1:-1
0:0:1
-1:-1
0:0:1
-1:-1
2:0:1
0:-1
0:1:1
-1:-1
0:0:1
-1:-1
0:0:1
-1:-1
0:0:1
-1:-1
0:0:1
-1:-1
0:0:1
-1:-1
0:0:1
-1:-1
0:0:1
-1:-1
0:5:1
-1:-1
0:7:1
-1:1
0:15:1
-1:-1
2:10:1
0:-1
0:6:1
-1:-1
0:5:1
-1:-1
0:6:1
-1:-1
5:5:1
1:-1
0:4:1
-1:-1
0:3:1
-1:-1
0:2:1
-1:-1
2:5:1
0:-1
0:4:1
-1:1
0:3:1
-1:-1
0:3:1
-1:-1
7:3:1
1:-1
3:1:1
0:-1
0:5:1
-1:-1
0:5:1
-1:1
2:9:1
0:-1
0:4:1
-1:-1
0:1:1
-1:-1
6:1:1
1:-1
5:2:1
1:1
0:4:2
-1:-1
0:1:1
-1:-1
3:1:1
0:-1
4:2:1
1:-1
0:4:1
-1:-1
0:3:1
-1:1
0:2:1
-1:1
2:6:1
0:-1
0:4:1
-1:1
0:1:1
-1:-1
0:1:1
-1:-1
1:9:1
-1:-1
1:5:1
-1:1
0:1:1
-1:-1
0:2:1
-1:1
1:4:1
-1:-1
1:6:1
-1:-1
0:2:1
-1:-1
8:2:1
2:1
0:2:3
-1:-1
0:8:2
-1:0
5:1:1
1:-1
1:3:1
-1:-1
0:1:1
-1:-1
5:5:1
1:-1
0:2:1
-1:1
1:15:1
-1:1
0:5:1
-1:-1
2:1:1
0:-1
0:2:1
-1:-1
0:17:1
-1:-1
1:16:1
-1:-1
0:0:1
-1:-1
0:0:1
-1:-1
4:3:1
1:-1
2:3:1
0:-1
0:7:1
-1:-1
0:5:1
-1:1
1:14:1
-1:-1
0:0:1
-1:-1
0:1:1
-1:-1
0:7:1
-1:-1
3:4:1
0:-1
0:2:1
-1:-1
3:6:1
0:-1
1:2:1
-1:-1
0:3:1
-1:-1
1:2:1
-1:-1
0:6:1
-1:1
4:5:1
1:-1
0:1:1
-1:-1
1:21:1
-1:1
0:4:1
-1:-1
0:7:1
-1:-1
0:7:1
-1:1
0:2:1
-1:-1
0:1:1
-1:-1
1:4:1
-1:-1
0:2:1
-1:-1
0:1:1
-1:-1
0:2:1
-1:-1
1:1:1
-1:-1
0:2:1
-1:-1
3:2:1
0:-1
0:1:1
-1:-1
0:1:1
-1:-1
0:0:1
-1:-1
0:0:1
-1:-1
0:1:1
-1:-1
0:0:1
-1:-1
0:1:1
-1:-1
0:1:1
-1:1
0:1:1
-1:-1
0:0:1
-1:-1
0:0:1
-1:-1
0:1:1
-1:1
3:2:1
0:-1
0:4:1
-1:-1
2:2:1
0:-1
0:1:1
-1:-1
0:0:1
-1:-1
0:4:1
-1:-1
0:1:1
-1:-1
0:5:1
-1:-1
2:4:1
0:1
0:0:2
-1:-1
0:2:1
-1:-1
0:0:1
-1:-1
0:2:1
-1:-1
1:2:1
-1:-1
0:2:1
-1:-1
0:3:1
-1:-1
0:2:1
-1:-1
0:2:1
-1:-1
0:0:1
-1:-1
3:2:1
0:-1
0:0:1
-1:-1
2:27:1
0:-1
0:19:1
-1:1
0:1:1
-1:-1
0:3:1
-1:-1
0:8:1
-1:-1
2:1:1
0:-1
0:5:1
-1:-1
0:17:1
-1:-1
0:15:1
-1:-1
0:0:1
-1:-1
0:0:1
-1:-1
0:0:1
-1:-1
2:3:1
0:-1
4:1:1
1:-1
1:2:1
-1:-1
0:1:1
-1:-1
3:30:1
0:-1
0:3:1
-1:1
0:2:1
-1:-1
0:0:1
-1:-1
2:2:1
0:-1
8:2:1
2:-1
2:2:1
0:-1
0:2:1
-1:-1
0:9:1
-1:-1
0:4:1
-1:-1
0:0:1
-1:-1
0:1:1
-1:-1
2:3:1
0:1
8:2:2
2:-1
0:1:2
-1:-1
0:1:1
-1:-1
0:22:1
-1:-1
0:5:1
-1:-1
0:1:1
-1:1
0:1:1
-1:-1
2:3:1
0:1
8:2:2
2:-1
2:1:2
0:-1
0:2:2
-1:-1
0:10:1
-1:-1
0:5:1
-1:-1
1:2:1
-1:-1
0:0:1
-1:-1
2:2:1
0:-1
7:2:1
1:-1
0:1:1
-1:-1
0:2:1
-1:-1
0:27:1
-1:1
0:3:1
-1:-1
0:1:1
-1:-1
0:9:1
-1:1
0:7:1
-1:-1
0:3:1
-1:-1
0:7:1
-1:-1
0:6:1
-1:-1
3:1:1
0:-1
0:30:1
-1:-1
0:2:1
-1:-1
0:18:1
-1:-1
3:5:1
0:-1
0:0:1
-1:-1
4:3:1
1:-1
0:3:1
-1:1
0:2:1
-1:-1
1:1:1
-1:-1
0:3:1
-1:-1
0:1:1
-1:1
0:16:1
-1:-1
0:2:1
-1:1
2:3:1
0:-1
0:1:1
-1:-1
0:6:1
-1:1
2:9:1
0:-1
3:1:1
0:-1
0:1:1
-1:-1
2:17:1
0:-1
0:5:1
-1:-1
0:1:1
-1:1
0:0:1
-1:-1
0:1:1
-1:-1
0:1:1
-1:1
2:5:1
0:-1
0:4:1
-1:-1
0:3:1
-1:-1
0:4:1
-1:1
3:9:1
0:-1
6:3:1
1:-1
8:1:1
2:-1
6:2:1
1:1
1:2:2
-1:-1
0:0:1
-1:-1
0:4:1
-1:-1
0:6:1
-1:-1
0:3:1
-1:-1
0:0:1
-1:-1
1:2:1
-1:-1
2:1:1
0:-1
6:3:1
1:-1
1:2:1
-1:-1
0:1:1
-1:-1
0:20:1
-1:-1
0:13:1
-1:1
0:0:1
-1:-1
0:2:1
-1:1
2:1:1
0:-1
8:1:1
2:-1
1:2:1
-1:-1
0:1:1
-1:-1
0:7:1
-1:-1
0:9:1
-1:1
0:1:1
-1:-1
2:1:1
0:-1
8:4:1
2:-1
0:1:1
-1:-1
0:1:1
-1:-1
0:4:1
-1:-1
0:4:1
-1:-1
0:0:1
-1:-1
1:2:1
-1:-1
2:1:1
0:-1
5:4:1
1:-1
0:2:1
-1:-1
0:0:1
-1:-1
0:22:1
-1:-1
0:11:1
-1:1
0:2:1
-1:-1
0:0:1
-1:-1
4:2:1
1:-1
2:1:1
0:-1
0:3:1
-1:-1
0:2:1
-1:1
0:6:1
-1:-1
0:5:1
-1:-1
1:21:1
-1:-1
0:10:1
-1:-1
2:1:1
0:-1
8:2:1
2:-1
1:2:1
-1:-1
0:0:1
-1:-1
0:6:1
-1:-1
0:2:1
-1:-1
0:0:1
-1:-1
2:1:1
0:-1
0:2:1
-1:-1
2:2:1
0:-1
0:1:1
-1:-1
1:16:1
-1:-1
0:3:1
-1:-1
0:1:1
-1:-1
0:0:1
-1:-1
2:2:1
0:-1
2:1:1
0:-1
2:1:1
0:-1
0:0:1
-1:-1
0:7:1
-1:-1
0:1:1
-1:1
0:0:1
-1:-1
1:2:1
-1:-1
2:2:1
0:-1
6:3:1
1:-1
0:1:1
-1:-1
0:2:1
-1:-1
0:15:1
-1:-1
0:10:1
-1:1
1:2:1
-1:-1
2:2:1
0:-1
8:2:1
2:-1
0:1:1
-1:-1
0:1:1
-1:-1
0:4:1
-1:-1
0:9:1
-1:1
0:0:1
-1:-1
0:0:1
-1:-1
0:2:1
-1:-1
6:4:1
1:-1
0:1:1
-1:-1
1:3:1
-1:-1
0:8:1
-1:-1
0:18:1
-1:-1
0:10:1
-1:1
5:8:1
1:1
3:2:2
0:-1
8:1:2
2:-1
2:1:2
0:-1
0:1:2
-1:-1
0:5:1
-1:-1
0:0:1
-1:-1
2:3:1
0:-1
8:2:1
2:-1
0:1:1
-1:-1
0:4:1
-1:-1
2:16:1
0:-1
1:25:1
-1:-1
2:1:1
0:-1
2:2:1
0:-1
0:1:1
-1:-1
0:1:1
-1:-1
0:12:1
-1:-1
0:4:1
-1:-1
0:0:1
-1:-1
0:0:1
-1:-1
2:3:1
0:-1
4:2:1
1:-1
8:1:1
2:-1
0:1:1
-1:-1
0:1:1
-1:-1
0:40:1
-1:-1
0:11:1
-1:-1
0:2:1
-1:-1
0:2:1
-1:-1
2:1:1
0:-1
0:0:1
-1:-1
0:14:1
-1:-1
0:1:1
-1:-1
0:0:1
-1:-1
5:1:1
1:-1
3:1:1
0:-1
8:1:1
2:-1
1:2:1
-1:-1
0:1:1
-1:-1
0:6:1
-1:-1
0:4:1
-1:-1
0:0:1
-1:-1
0:0:1
-1:-1
2:2:1
0:-1
2:1:1
0:-1
0:1:1
-1:-1
0:2:1
-1:-1
0:4:1
-1:-1
0:0:1
-1:-1
0:0:1
-1:-1
6:3:1
1:-1
2:2:1
0:-1
2:2:1
0:-1
0:1:1
-1:-1
0:2:1
-1:-1
0:4:1
-1:-1
6:2:1
1:-1
4:2:1
1:-1
8:1:1
2:-1
2:2:1
0:-1
0:1:1
-1:-1
0:9:1
-1:-1
1:2:1
-1:-1
0:2:1
-1:-1
0:0:1
-1:-1
2:2:1
0:-1
2:2:1
0:-1
0:0:1
-1:-1
0:3:1
-1:-1
1:14:1
-1:-1
0:4:1
-1:-1
0:1:1
-1:-1
1:2:1
-1:-1
2:2:1
0:-1
2:2:1
0:-1
0:1:1
-1:-1
0:1:1
-1:-1
0:12:1
-1:-1
0:4:1
-1:1
0:2:1
-1:-1
0:2:1
-1:-1
0:1:1
-1:-1
0:0:1
-1:-1
0:3:1
-1:-1
1:8:1
-1:-1
0:7:1
-1:1
0:0:1
-1:-1
0:1:1
-1:-1
0:0:1
-1:-1
0:6:1
-1:-1
0:11:1
-1:-1
0:1:1
-1:-1
0:10:1
-1:-1
0:4:1
-1:-1
0:8:1
-1:1
0:1:1
-1:-1
3:0:1
0:-1
0:0:1
-1:-1
0:1:1
-1:-1
0:2:1
-1:-1
0:1:1
-1:-1
0:0:1
-1:-1
0:2:1
-1:-1
0:0:1
-1:-1
0:1:1
-1:-1
1:1:1
-1:-1
0:1:1
-1:-1
0:1:1
-1:-1
0:3:1
-1:1
0:0:1
-1:-1
0:0:1
-1:-1
0:1:1
-1:-1
1:1:1
-1:-1
0:1:1
-1:-1
0:3:1
-1:-1
0:1:1
-1:-1
0:2:1
-1:1
0:0:1
-1:-1
0:1:1
-1:-1
0:2:1
-1:1
0:1:1
-1:-1
0:2:1
-1:1
0:2:1
-1:1
0:0:1
-1:-1
0:1:1
-1:-1
1:2:1
-1:1
0:1:1
-1:-1
0:3:1
-1:1
0:2:1
-1:1
0:1:1
-1:-1
0:1:1
-1:-1
7:1:1
1:1
0:4:2
-1:-1
0:2:1
-1:-1
0:0:1
-1:-1
0:0:1
-1:-1
2:0:1
0:-1
0:0:1
-1:-1
0:0:1
-1:-1
0:0:1
-1:-1
0:0:1
-1:-1
2:0:1
0:-1
0:0:1
-1:-1
0:0:1
-1:-1
0:0:1
-1:-1
0:0:1
-1:-1
0:0:1
-1:-1
0:0:1
-1:-1
0:0:1
-1:-1
0:0:1
-1:-1
0:0:1
-1:-1
0:0:1
-1:-1
0:0:1
-1:-1
0:0:1
-1:-1
2:0:1
0:-1
0:0:1
-1:-1
0:0:1
-1:-1
0:2:1
-1:-1
0:0:1
-1:-1
0:0:1
-1:-1
0:0:1
-1:-1
0:0:1
-1:-1
0:1:1
-1:-1
0:0:1
-1:-1
0:0:1
-1:-1
2:0:1
0:-1
3:2:1
0:-1
0:8:1
-1:-1
0:17:1
-1:-1
3:7:1
0:-1
2:15:1
0:-1
0:6:1
-1:-1
0:5:1
-1:-1
0:5:1
-1:1
5:5:1
1:1
4:5:2
1:-1
0:3:2
-1:-1
0:6:1
-1:1
2:3:1
0:-1
2:4:1
0:1
0:5:2
-1:-1
1:9:1
-1:-1
5:5:1
1:-1
4:5:1
1:-1
6:4:1
1:-1
0:5:1
-1:1
0:3:1
-1:1
2:2:1
0:1
2:7:2
0:0
1:6:2
-1:0
0:3:1
-1:1
2:2:1
0:1
2:5:2
0:1
0:6:3
-1:1
0:2:3
-1:-1
0:2:2
-1:0
2:11:1
0:-1
1:5:1
-1:1
2:4:1
0:1
7:1:2
1:-1
3:4:2
0:0
1:3:2
-1:0
0:3:1
-1:1
0:3:1
-1:1
2:7:1
0:1
0:5:2
-1:1
0:2:2
-1:-1
0:2:1
-1:1
0:5:1
-1:-1
0:4:1
-1:1
0:4:1
-1:-1
0:5:1
-1:-1
1:6:1
-1:-1
1:7:1
-1:-1
0:3:1
-1:-1
0:4:1
-1:-1
2:2:1
0:-1
6:2:1
1:-1
0:3:1
-1:-1
2:8:1
0:-1
0:11:1
-1:-1
0:7:1
-1:-1
0:11:1
-1:-1
0:6:1
-1:-1
2:6:1
0:1
0:4:2
-1:-1
0:6:1
-1:-1
2:6:1
0:-1
0:6:1
-1:-1
0:5:1
-1:-1
0:1:1
-1:-1
0:0:1
-1:-1
2:2:1
0:-1
0:0:1
-1:-1
0:10:1
-1:-1
4:4:1
1:1
0:2:2
-1:-1
0:6:1
-1:1
0:1:1
-1:-1
1:1:1
-1:-1
0:2:1
-1:-1
1:3:1
-1:1
0:3:1
-1:1
0:6:1
-1:-1
0:2:1
-1:-1
0:2:1
-1:-1
0:1:1
-1:-1
1:9:1
-1:1
1:4:1
-1:1
0:0:1
-1:-1
0:5:1
-1:-1
0:2:1
-1:-1
0:2:1
-1:-1
0:1:1
-1:-1
1:9:1
-1:-1
0:2:1
-1:-1
0:5:1
-1:-1
0:0:1
-1:-1
0:2:1
-1:-1
0:1:1
-1:-1
0:4:1
-1:1
1:7:1
-1:-1
0:1:1
-1:1
1:1:1
-1:-1
0:3:1
-1:-1
1:1:1
-1:-1
0:3:1
-1:1
0:4:1
-1:-1
0:2:1
-1:-1
0:2:1
-1:-1
1:2:1
-1:-1
0:2:1
-1:-1
1:4:1
-1:-1
0:3:1
-1:-1
0:5:1
-1:-1
0:1:1
-1:-1
0:3:1
-1:-1
0:2:1
-1:-1
0:3:1
-1:-1
2:1:1
0:-1
0:3:1
-1:-1
0:5:1
-1:1
0:1:1
-1:-1
0:1:1
-1:-1
2:2:1
0:-1
0:0:1
-1:-1
3:4:1
0:-1
0:3:1
-1:-1
0:4:1
-1:-1
0:2:1
-1:1
0:2:1
-1:-1
0:4:1
-1:1
0:57:1
-1:-1
0:5:1
-1:1
0:4:1
-1:-1
0:0:1
-1:-1
1:4:1
-1:1
0:2:1
-1:-1
1:4:1
-1:-1
0:2:1
-1:-1
2:0:1
0:-1
0:3:1
-1:-1
4:3:1
1:-1
2:0:1
0:-1
0:3:1
-1:-1
2:1:1
0:-1
0:3:1
-1:-1
2:2:1
0:1
0:13:2
-1:1
0:10:2
-1:0
2:7:1
0:1
0:1:2
-1:-1
2:4:1
0:-1
2:7:1
0:1
2:1:2
0:-1
0:2:2
-1:-1
0:8:1
-1:1
1:7:1
-1:-1
3:3:1
0:-1
0:1:1
-1:-1
3:11:1
0:-1
0:7:1
-1:-1
2:2:1
0:-1
0:1:1
-1:-1
0:5:1
-1:-1
0:4:1
-1:-1
0:2:1
-1:-1
0:6:1
-1:-1
4:6:1
1:-1
0:2:1
-1:-1
0:2:1
-1:-1
0:1:1
-1:-1
0:6:1
-1:-1
0:13:1
-1:1
0:5:1
-1:1
2:3:1
0:-1
0:2:1
-1:-1
0:4:1
-1:-1
1:7:1
-1:-1
2:3:1
0:-1
0:1:1
-1:-1
0:5:1
-1:-1
0:7:1
-1:1
5:2:1
1:-1
0:2:1
-1:-1
1:15:1
-1:-1
0:7:1
-1:-1
0:2:1
-1:1
0:16:1
-1:-1
0:5:1
-1:1
0:1:1
-1:-1
1:5:1
-1:-1
7:4:1
1:1
0:1:2
-1:-1
0:3:1
-1:1
0:7:1
-1:1
0:9:1
-1:-1
0:2:1
-1:-1
0:6:1
-1:1
0:3:1
-1:-1
0:2:1
-1:-1
0:0:1
-1:-1
0:0:1
-1:-1
0:1:1
-1:-1
0:2:1
-1:-1
0:0:1
-1:-1
0:0:1
-1:-1
0:1:1
-1:-1
0:0:1
-1:-1
0:0:1
-1:-1
0:0:1
-1:-1
0:1:1
-1:-1
4:2:1
1:-1
3:1:1
0:-1
0:0:1
-1:-1
0:1:1
-1:-1
2:1:1
0:-1
0:4:1
-1:1
0:0:1
-1:-1
0:1:1
-1:-1
0:2:1
-1:-1
3:2:1
0:-1
3:1:1
0:-1
0:0:1
-1:-1
3:2:1
0:-1
0:2:1
-1:-1
2:2:1
0:-1
0:2:1
-1:-1
2:8:1
0:1
0:12:2
-1:-1
2:2:1
0:-1
0:3:1
-1:-1
2:1:1
0:-1
0:1:1
-1:-1
0:4:1
-1:1
1:2:1
-1:-1
0:4:1
-1:1
3:6:1
0:-1
0:2:1
-1:-1
0:3:1
-1:-1
0:2:1
-1:-1
1:15:1
-1:-1
0:3:1
-1:1
0:2:1
-1:-1
0:4:1
-1:-1
0:1:1
-1:-1
0:2:1
-1:-1
0:2:1
-1:1
0:19:1
-1:-1
2:6:1
0:1
0:3:2
-1:-1
4:4:1
1:-1
0:1:1
-1:-1
0:6:1
-1:-1
2:0:1
0:-1
0:2:1
-1:-1
2:4:1
0:1
0:7:2
-1:-1
0:4:1
-1:1
0:4:1
-1:1
0:3:1
-1:-1
2:1:1
0:-1
0:1:1
-1:-1
2:2:1
0:1
0:3:2
-1:-1
0:3:1
-1:-1
3:3:1
0:-1
0:4:1
-1:-1
0:5:1
-1:-1
2:2:1
0:1
0:6:2
-1:0
0:0:1
-1:-1
0:2:1
-1:-1
0:4:1
-1:-1
1:6:1
-1:-1
0:2:1
-1:-1
1:5:1
-1:1
0:9:1
-1:-1
0:6:1
-1:1
0:5:1
-1:1
1:1:1
-1:-1
0:2:1
-1:-1
1:10:1
-1:-1
0:6:1
-1:-1
0:3:1
-1:-1
0:1:1
-1:-1
0:7:1
-1:1
0:4:1
-1:-1
0:4:1
-1:1
0:3:1
-1:-1
2:3:1
0:-1
1:2:1
-1:-1
1:5:1
-1:1
0:0:1
-1:-1
0:4:1
-1:-1
0:3:1
-1:-1
0:4:1
-1:-1
0:4:1
-1:-1
1:3:1
-1:-1
0:3:1
-1:1
2:4:1
0:-1
0:1:1
-1:-1
0:5:1
-1:-1
0:1:1
-1:-1
3:5:1
0:1
1:4:2
-1:1
0:1:2
-1:-1
0:4:1
-1:-1
0:2:1
-1:-1
0:1:1
-1:1
0:2:1
-1:-1
2:3:1
0:1
0:27:2
-1:-1
3:2:1
0:-1
0:2:1
-1:-1
2:3:1
0:-1
0:5:1
-1:-1
0:2:1
-1:-1
2:12:1
0:1
0:8:2
-1:-1
0:0:1
-1:-1
0:2:1
-1:-1
2:12:1
0:-1
0:5:1
-1:-1
0:2:1
-1:1
1:3:1
-1:-1
0:4:1
-1:-1
0:2:1
-1:-1
3:5:1
0:1
1:11:2
-1:-1
2:1:1
0:-1
2:2:1
0:-1
0:1:1
-1:-1
0:7:1
-1:-1
0:3:1
-1:1
2:0:1
0:-1
0:1:1
-1:-1
1:6:1
-1:-1
0:0:1
-1:-1
0:1:1
-1:-1
0:1:1
-1:-1
2:4:1
0:-1
0:3:1
-1:-1
0:3:1
-1:-1
0:12:1
-1:-1
0:10:1
-1:-1
0:0:1
-1:-1
1:2:1
-1:-1
6:4:1
1:1
0:2:2
-1:-1
0:10:1
-1:-1
0:3:1
-1:-1
1:1:1
-1:-1
1:5:1
-1:-1
2:2:1
0:-1
0:1:1
-1:-1
0:17:1
-1:-1
0:5:1
-1:-1
0:3:1
-1:1
0:2:1
-1:1
0:5:1
-1:1
0:3:1
-1:-1
0:2:1
-1:-1
0:21:1
-1:-1
0:29:1
-1:1
0:3:1
-1:-1
0:21:1
-1:1
2:7:1
0:-1
0:7:1
-1:-1
0:3:1
-1:-1
0:2:1
-1:-1
0:8:1
-1:1
0:0:1
-1:-1
0:0:1
-1:-1
0:1:1
-1:-1
0:1:1
-1:-1
0:0:1
-1:-1
0:1:1
-1:-1
2:1:1
0:-1
0:7:1
-1:-1
0:0:1
-1:-1
0:0:1
-1:-1
0:3:1
-1:-1
5:2:1
1:-1
3:3:1
0:-1
0:6:1
-1:-1
0:9:1
-1:-1
0:3:1
-1:-1
3:1:1
0:-1
0:2:1
-1:-1
1:3:1
-1:-1
2:3:1
0:-1
0:2:1
-1:-1
0:2:1
-1:-1
0:2:1
-1:-1
0:2:1
-1:-1
0:2:1
-1:-1
2:8:1
0:1
0:2:2
-1:-1
3:5:1
0:-1
0:0:1
-1:-1
0:3:1
-1:-1
0:1:1
-1:-1
0:13:1
-1:1
2:2:1
0:-1
0:0:1
-1:-1
0:0:1
-1:-1
0:0:1
-1:-1
0:2:1
-1:-1
2:8:1
0:-1
0:14:1
-1:-1
0:8:1
-1:-1
0:3:1
-1:1
1:16:1
-1:-1
0:0:1
-1:-1
1:0:1
-1:-1
3:1:1
0:-1
2:0:1
0:-1
2:3:1
0:-1
0:0:1
-1:-1
0:11:1
-1:-1
0:5:1
-1:1
0:0:1
-1:-1
0:1:1
-1:-1
0:2:1
-1:1
5:1:1
1:-1
4:3:1
1:-1
5:0:1
1:-1
0:6:1
-1:-1
0:1:1
-1:-1
0:0:1
-1:-1
0:0:1
-1:-1
1:2:1
-1:-1
0:1:1
-1:-1
5:3:1
1:-1
4:2:1
1:-1
0:0:1
-1:-1
0:15:1
-1:-1
0:1:1
-1:-1
0:0:1
-1:-1
0:0:1
-1:-1
3:2:1
0:-1
0:2:1
-1:-1
0:2:1
-1:-1
0:6:1
-1:-1
1:18:1
-1:-1
1:2:1
-1:-1
0:0:1
-1:-1
2:3:1
0:-1
0:3:1
-1:-1
2:19:1
0:-1
0:4:1
-1:-1
0:4:1
-1:-1
1:4:1
-1:-1
2:2:1
0:-1
0:2:1
-1:-1
0:3:1
-1:-1
0:20:1
-1:-1
0:0:1
-1:-1
0:0:1
-1:-1
0:1:1
-1:-1
0:2:1
-1:1
0:2:1
-1:-1
0:1:1
-1:-1
6:1:1
1:-1
0:22:1
-1:-1
0:1:1
-1:-1
0:1:1
-1:-1
0:2:1
-1:1
0:2:1
-1:-1
0:0:1
-1:-1
0:1:1
-1:-1
0:19:1
-1:-1
0:3:1
-1:-1
0:0:1
-1:-1
2:2:1
0:-1
2:3:1
0:-1
5:0:1
1:-1
0:17:1
-1:-1
0:3:1
-1:-1
0:0:1
-1:-1
0:2:1
-1:-1
5:2:1
1:-1
4:2:1
1:-1
2:0:1
0:-1
0:8:1
-1:-1
0:11:1
-1:1
0:3:1
-1:-1
4:3:1
1:-1
5:1:1
1:1
2:2:2
0:-1
0:1:2
-1:-1
0:8:1
-1:-1
0:12:1
-1:1
0:2:1
-1:-1
0:1:1
-1:-1
0:2:1
-1:1
4:4:1
1:-1
0:2:1
-1:-1
1:5:1
-1:-1
0:0:1
-1:-1
2:29:1
0:-1
0:35:1
-1:1
0:2:1
-1:1
0:2:1
-1:-1
0:2:1
-1:-1
0:3:1
-1:-1
0:18:1
-1:-1
0:14:1
-1:1
5:1:1
1:-1
3:1:1
0:-1
8:1:1
2:-1
0:2:1
-1:-1
0:1:1
-1:-1
0:18:1
-1:-1
0:3:1
-1:-1
0:0:1
-1:-1
0:0:1
-1:-1
2:1:1
0:-1
8:3:1
2:-1
0:0:1
-1:-1
0:2:1
-1:-1
0:7:1
-1:-1
0:2:1
-1:-1
0:0:1
-1:-1
3:2:1
0:-1
4:1:1
1:-1
8:2:1
2:-1
2:2:1
0:-1
0:1:1
-1:-1
0:13:1
-1:-1
0:5:1
-1:-1
0:3:1
-1:-1
0:0:1
-1:-1
2:2:1
0:-1
8:3:1
2:-1
1:2:1
-1:-1
0:1:1
-1:-1
0:6:1
-1:-1
0:3:1
-1:-1
0:1:1
-1:-1
2:2:1
0:1
6:3:2
1:-1
0:1:2
-1:-1
0:0:1
-1:-1
Finished CPU 0 instructions: 10000000 cycles: 40286067 cumulative IPC: 0.248225 (Simulation time: 0 hr 1 min 1 sec) 

CPU 0 Branch Prediction Accuracy: 96.7095% MPKI: 4.878 Average ROB Occupancy at Mispredict: 111.717

ChampSim completed all CPUs

Region of Interest Statistics

CPU 0 cumulative IPC: 0.248225 instructions: 10000000 cycles: 40286067
L1D TOTAL     ACCESS:    6430472  HIT:    6138010  MISS:     292462
L1D LOAD      ACCESS:    2546137  HIT:    2404233  MISS:     141904
L1D RFO       ACCESS:    1842896  HIT:    1828629  MISS:      14267
L1D PREFETCH  ACCESS:    2041439  HIT:    1905148  MISS:     136291
L1D WRITEBACK ACCESS:          0  HIT:          0  MISS:          0
L1D PREFETCH  REQUESTED:    2306677  ISSUED:    2295733  USEFUL:      34962  USELESS:     115838
L1D AVERAGE MISS LATENCY: 160521 cycles
L1I TOTAL     ACCESS:    3098543  HIT:    3094776  MISS:       3767
L1I LOAD      ACCESS:    3098543  HIT:    3094776  MISS:       3767
L1I RFO       ACCESS:          0  HIT:          0  MISS:          0
L1I PREFETCH  ACCESS:          0  HIT:          0  MISS:          0
L1I WRITEBACK ACCESS:          0  HIT:          0  MISS:          0
L1I PREFETCH  REQUESTED:          0  ISSUED:          0  USEFUL:          0  USELESS:          0
L1I AVERAGE MISS LATENCY: 30.4927 cycles
L2C TOTAL     ACCESS:     548566  HIT:     285145  MISS:     263421
L2C LOAD      ACCESS:     143920  HIT:      57813  MISS:      86107
L2C RFO       ACCESS:      13786  HIT:       5206  MISS:       8580
L2C PREFETCH  ACCESS:     296628  HIT:     128103  MISS:     168525
L2C WRITEBACK ACCESS:      94232  HIT:      94023  MISS:        209
L2C PREFETCH  REQUESTED:     310542  ISSUED:     306634  USEFUL:      19207  USELESS:     163222
L2C AVERAGE MISS LATENCY: 146.341 cycles
LLC TOTAL     ACCESS:     332410  HIT:     145466  MISS:     186944
LLC LOAD      ACCESS:      85676  HIT:      23793  MISS:      61883
LLC RFO       ACCESS:       8507  HIT:       3223  MISS:       5284
LLC PREFETCH  ACCESS:     169027  HIT:      49743  MISS:     119284
LLC WRITEBACK ACCESS:      69200  HIT:      68707  MISS:        493
LLC PREFETCH  REQUESTED:          0  ISSUED:          0  USEFUL:       4513  USELESS:     111220
LLC AVERAGE MISS LATENCY: 155.636 cycles
Major fault: 0 Minor fault: 20675
CPU 0 L2C next line prefetcher final stats

DRAM Statistics
 CHANNEL 0
 RQ ROW_BUFFER_HIT:      45660  ROW_BUFFER_MISS:     140791
 DBUS_CONGESTED:      86392
 WQ ROW_BUFFER_HIT:       5466  ROW_BUFFER_MISS:      40798  FULL:          0

 AVG_CONGESTED_CYCLE: 4
