
*** ChampSim Multicore Out-of-Order Simulator ***

Warmup Instructions: 1000000
Simulation Instructions: 10000000
Number of CPUs: 1
LLC sets: 2048
LLC ways: 16
Off-chip DRAM Size: 4096 MB Channels: 1 Width: 64-bit Data Rate: 3200 MT/s

CPU 0 runs /home/light/7th-Sem/cs622/project/ChampSim/dpc3_traces/623.xalancbmk_s-700B.champsimtrace.xz
1:15:4
-1:-1
15:50:3
2:0
15:82:4
2:1
0:58:6
-1:0
8:20:5
2:-1
2:14:5
0:-1
0:17:5
-1:0
0:8:4
-1:-1
0:10:3
-1:-1
0:13:2
-1:-1
1:20:1
-1:-1
1:19:1
-1:-1
4:12:1
1:1
4:15:2
1:1
3:16:3
0:1
0:18:4
-1:1
2:9:4
0:-1
0:6:4
-1:-1
0:5:3
-1:0
0:3:2
-1:-1
0:15:1
-1:-1
4:10:1
1:-1
0:10:1
-1:1
0:18:1
-1:1
0:12:1
-1:1
3:6:1
0:-1
2:21:1
0:-1
0:18:1
-1:-1
0:12:1
-1:1
0:15:1
-1:-1
0:8:1
-1:-1
1:4:1
-1:-1
0:8:1
-1:-1
0:4:1
-1:-1
0:14:1
-1:-1
0:11:1
-1:1
0:22:1
-1:-1
2:13:1
0:-1
0:16:1
-1:-1
0:26:1
-1:-1
0:8:1
-1:1
0:18:1
-1:1
0:6:1
-1:-1
1:4:1
-1:-1
1:14:1
-1:-1
0:13:1
-1:-1
4:12:1
1:1
0:22:2
-1:1
0:17:2
-1:0
3:7:1
0:-1
1:28:1
-1:1
0:20:1
-1:-1
0:15:1
-1:-1
0:20:1
-1:1
0:7:1
-1:-1
1:5:1
-1:-1
0:8:1
-1:-1
3:21:1
0:-1
3:14:1
0:-1
1:16:1
-1:-1
2:34:1
0:-1
3:71:1
0:-1
2:66:1
0:-1
0:64:1
-1:1
1:64:1
-1:-1
0:72:1
-1:-1
3:64:1
0:-1
1:86:1
-1:-1
0:84:1
-1:1
0:116:1
-1:-1
14:124:1
2:-1
13:92:1
2:1
15:73:3
2:1
1:69:5
-1:1
2:37:5
0:-1
0:45:5
-1:-1
2:57:4
0:0
2:27:4
0:0
0:38:4
-1:-1
3:12:3
0:-1
0:14:3
-1:-1
0:21:2
-1:0
0:24:1
-1:-1
3:9:1
0:1
0:17:2
-1:0
0:18:1
-1:-1
0:9:1
-1:-1
0:32:1
-1:-1
0:9:1
-1:-1
0:19:1
-1:-1
0:9:1
-1:-1
1:4:1
-1:-1
3:7:1
0:-1
0:13:1
-1:1
0:15:1
-1:-1
3:12:1
0:1
0:23:2
-1:-1
3:13:1
0:-1
1:31:1
-1:1
0:18:1
-1:-1
0:16:1
-1:-1
0:15:1
-1:1
0:8:1
-1:-1
1:7:1
-1:-1
0:9:1
-1:-1
0:13:1
-1:-1
0:10:1
-1:-1
0:26:1
-1:-1
0:6:1
-1:-1
0:28:1
-1:-1
0:14:1
-1:-1
2:17:1
0:-1
0:13:1
-1:-1
0:8:1
-1:-1
0:7:1
-1:1
0:5:1
-1:-1
3:189:1
0:1
0:374:2
-1:0
0:298:1
-1:1
0:404:1
-1:1
0:364:1
-1:1
1:377:1
-1:-1
1:364:1
-1:-1
2:311:1
0:-1
4:329:1
1:-1
2:280:1
0:-1
2:345:1
0:1
15:91:2
2:-1
4:89:2
1:1
0:87:3
-1:1
2:47:3
0:0
1:46:3
-1:-1
0:63:2
-1:-1
0:22:1
-1:1
0:33:1
-1:-1
3:12:1
0:-1
0:14:1
-1:-1
2:27:1
0:1
0:23:2
-1:-1
4:10:1
1:1
0:17:2
-1:0
0:18:1
-1:-1
0:11:1
-1:-1
0:31:1
-1:-1
1:10:1
-1:1
0:21:1
-1:-1
0:8:1
-1:-1
1:10:1
-1:-1
0:12:1
-1:-1
0:17:1
-1:-1
3:13:1
0:1
0:23:2
-1:-1
0:13:1
-1:-1
1:32:1
-1:-1
0:19:1
-1:-1
0:19:1
-1:-1
0:15:1
-1:1
0:10:1
-1:-1
0:11:1
-1:1
0:8:1
-1:-1
2:7:1
0:1
0:24:2
-1:-1
0:13:1
-1:-1
0:29:1
-1:-1
0:13:1
-1:-1
1:16:1
-1:-1
0:12:1
-1:-1
0:6:1
-1:-1
0:12:1
-1:-1
0:8:1
-1:-1
4:11:1
1:1
0:14:2
-1:-1
0:18:1
-1:-1
0:7:1
-1:-1
0:30:1
-1:-1
0:15:1
-1:-1
0:22:1
-1:-1
0:9:1
-1:-1
0:6:1
-1:-1
0:9:1
-1:-1
0:53:1
-1:-1
1:243:1
-1:1
1:310:1
-1:-1
0:351:1
-1:-1
1:394:1
-1:-1
0:382:1
-1:-1
1:347:1
-1:1
1:343:1
-1:-1
2:282:1
0:-1
2:323:1
0:-1
2:336:1
0:1
12:261:2
2:-1
3:85:2
0:1
15:83:3
2:1
0:81:5
-1:1
0:31:5
-1:-1
0:72:4
-1:0
3:40:3
0:-1
7:29:3
1:0
0:16:4
-1:0
0:21:3
-1:-1
2:19:2
0:0
0:23:2
-1:0
0:12:1
-1:-1
0:8:1
-1:1
0:25:1
-1:-1
0:6:1
-1:-1
0:29:1
-1:-1
0:18:1
-1:-1
0:17:1
-1:-1
1:17:1
-1:1
0:5:1
-1:-1
1:13:1
-1:1
2:16:1
0:-1
8:16:1
2:-1
0:17:1
-1:1
0:17:1
-1:-1
0:13:1
-1:-1
0:27:1
-1:-1
2:13:1
0:1
0:25:2
-1:-1
0:9:1
-1:-1
0:8:1
-1:-1
0:11:1
-1:1
0:14:1
-1:-1
2:10:1
0:1
0:26:2
-1:-1
0:11:1
-1:-1
2:28:1
0:-1
0:13:1
-1:-1
3:16:1
0:-1
0:16:1
-1:-1
1:5:1
-1:-1
0:11:1
-1:-1
0:96:1
-1:1
0:237:1
-1:-1
1:335:1
-1:1
0:401:1
-1:1
0:387:1
-1:-1
0:385:1
-1:-1
1:348:1
-1:1
0:329:1
-1:-1
0:306:1
-1:-1
1:313:1
-1:-1
3:346:1
0:1
2:187:2
0:-1
15:91:2
2:1
1:81:4
-1:1
3:69:4
0:-1
0:28:4
-1:0
2:75:3
0:0
0:38:3
-1:-1
0:34:2
-1:-1
0:19:1
-1:-1
0:15:1
-1:1
0:21:1
-1:-1
0:27:1
-1:1
0:13:1
-1:-1
0:8:1
-1:1
0:24:1
-1:-1
0:7:1
-1:1
0:30:1
-1:-1
0:12:1
-1:1
0:21:1
-1:-1
0:10:1
-1:-1
1:2:1
-1:-1
0:10:1
-1:-1
3:8:1
0:-1
0:5:1
-1:-1
0:25:1
-1:1
0:12:1
-1:-1
0:25:1
-1:-1
0:15:1
-1:-1
3:13:1
0:-1
0:17:1
-1:-1
1:5:1
-1:-1
2:12:1
0:-1
3:7:1
0:-1
0:5:1
-1:-1
0:18:1
-1:1
0:12:1
-1:1
2:18:1
0:1
0:21:2
-1:-1
0:13:1
-1:1
0:17:1
-1:-1
1:6:1
-1:-1
0:7:1
-1:-1
0:8:1
-1:1
0:19:1
-1:-1
2:12:1
0:1
0:26:2
-1:-1
2:6:1
0:-1
0:33:1
-1:1
3:14:1
0:1
0:16:2
-1:-1
1:16:1
-1:-1
0:9:1
-1:-1
0:11:1
-1:-1
1:73:1
-1:-1
2:246:1
0:-1
0:290:1
-1:-1
0:399:1
-1:1
2:386:1
0:-1
2:375:1
0:-1
2:339:1
0:-1
2:357:1
0:-1
3:293:1
0:-1
0:318:1
-1:-1
0:345:1
-1:-1
15:229:1
2:-1
15:90:1
2:1
0:74:3
-1:1
0:79:3
-1:0
0:29:2
-1:0
2:76:1
0:-1
0:38:1
-1:-1
2:23:1
0:-1
0:22:1
-1:-1
0:20:1
-1:-1
0:17:1
-1:-1
0:33:1
-1:-1
6:13:1
1:-1
0:14:1
-1:1
0:22:1
-1:1
0:13:1
-1:1
0:20:1
-1:1
0:28:1
-1:-1
1:16:1
-1:1
0:12:1
-1:-1
0:10:1
-1:-1
0:10:1
-1:-1
0:13:1
-1:1
0:14:1
-1:-1
3:12:1
0:1
0:22:2
-1:-1
3:12:1
0:-1
0:29:1
-1:-1
2:16:1
0:1
0:20:2
-1:-1
0:10:1
-1:-1
1:6:1
-1:-1
1:15:1
-1:-1
3:8:1
0:-1
0:9:1
-1:1
0:20:1
-1:1
0:12:1
-1:1
2:18:1
0:1
0:24:2
-1:-1
0:13:1
-1:1
0:15:1
-1:1
0:8:1
-1:-1
1:11:1
-1:-1
5:70:1
1:-1
0:256:1
-1:1
2:340:1
0:1
0:400:2
-1:-1
0:395:1
-1:1
0:382:1
-1:-1
0:339:1
-1:1
0:341:1
-1:1
2:315:1
0:-1
0:307:1
-1:-1
0:350:1
-1:-1
11:201:1
2:-1
15:91:1
2:1
0:91:3
-1:1
0:62:3
-1:-1
0:21:2
-1:0
1:87:1
-1:1
3:29:1
0:1
0:34:2
-1:-1
5:10:1
1:-1
0:21:1
-1:-1
10:34:1
2:-1
2:17:1
0:-1
9:18:1
2:-1
0:19:1
-1:-1
0:26:1
-1:1
3:20:1
0:-1
0:27:1
-1:-1
0:16:1
-1:1
0:21:1
-1:-1
1:9:1
-1:-1
1:5:1
-1:-1
0:16:1
-1:-1
7:17:1
1:-1
0:15:1
-1:-1
0:20:1
-1:1
0:18:1
-1:1
2:22:1
0:1
0:30:2
-1:-1
1:19:1
-1:1
0:19:1
-1:-1
0:8:1
-1:-1
1:6:1
-1:-1
0:9:1
-1:-1
5:14:1
1:-1
0:16:1
-1:-1
2:25:1
0:1
0:11:2
-1:-1
2:23:1
0:1
0:30:2
-1:-1
0:17:1
-1:1
0:15:1
-1:1
0:10:1
-1:-1
1:13:1
-1:1
4:18:1
1:-1
9:16:1
2:-1
0:20:1
-1:1
1:21:1
-1:-1
0:26:1
-1:-1
0:26:1
-1:1
0:17:1
-1:1
0:15:1
-1:1
0:12:1
-1:1
0:9:1
-1:-1
0:12:1
-1:-1
1:239:1
-1:1
0:327:1
-1:-1
1:352:1
-1:-1
2:393:1
0:-1
0:378:1
-1:-1
2:345:1
0:1
2:351:2
0:-1
2:295:2
0:-1
2:323:2
0:-1
0:339:2
-1:-1
15:270:1
2:1
12:91:3
2:1
15:82:5
2:1
0:85:7
-1:0
0:33:6
-1:-1
2:81:5
0:0
4:33:5
1:-1
0:37:5
-1:-1
5:13:4
1:-1
0:25:4
-1:0
0:33:3
-1:-1
4:11:2
1:-1
0:14:2
-1:0
0:21:1
-1:1
0:14:1
-1:1
0:24:1
-1:-1
1:26:1
-1:-1
0:15:1
-1:-1
0:15:1
-1:1
0:8:1
-1:-1
1:9:1
-1:1
0:13:1
-1:-1
0:13:1
-1:-1
4:12:1
1:1
0:26:2
-1:-1
0:9:1
-1:-1
1:34:1
-1:-1
1:14:1
-1:-1
0:22:1
-1:-1
0:11:1
-1:-1
1:4:1
-1:-1
0:15:1
-1:-1
0:13:1
-1:-1
2:10:1
0:1
0:24:2
-1:0
0:12:1
-1:-1
0:28:1
-1:-1
0:15:1
-1:-1
1:14:1
-1:-1
0:18:1
-1:-1
0:7:1
-1:-1
1:13:1
-1:1
3:75:1
0:-1
0:246:1
-1:1
2:337:1
0:1
2:389:2
0:-1
0:388:2
-1:-1
0:385:1
-1:-1
0:337:1
-1:1
0:334:1
-1:1
0:300:1
-1:-1
3:315:1
0:1
0:354:2
-1:-1
10:206:1
2:-1
15:86:1
2:1
2:87:3
0:1
2:69:4
0:1
0:26:5
-1:-1
0:84:4
-1:0
2:28:3
0:0
0:38:3
-1:-1
5:12:2
1:-1
0:23:2
-1:0
3:23:1
0:1
3:30:2
0:1
0:13:3
-1:-1
0:20:2
-1:1
0:16:2
-1:1
0:20:2
-1:0
0:24:1
-1:-1
1:19:1
-1:1
0:21:1
-1:-1
0:5:1
-1:-1
0:9:1
-1:1
0:16:1
-1:1
7:14:1
1:-1
0:17:1
-1:1
2:23:1
0:1
0:18:2
-1:-1
0:24:1
-1:1
1:29:1
-1:-1
0:16:1
-1:-1
0:19:1
-1:1
0:11:1
-1:-1
0:9:1
-1:1
0:8:1
-1:1
0:20:1
-1:-1
2:13:1
0:1
0:30:2
-1:-1
2:11:1
0:-1
0:35:1
-1:1
3:12:1
0:-1
0:27:1
-1:-1
0:11:1
-1:-1
1:5:1
-1:-1
0:17:1
-1:-1
0:16:1
-1:-1
3:12:1
0:1
0:25:2
-1:1
0:11:2
-1:-1
1:31:1
-1:-1
2:16:1
0:-1
3:16:1
0:-1
0:17:1
-1:-1
1:8:1
-1:-1
0:14:1
-1:-1
0:134:1
-1:1
1:323:1
-1:-1
1:320:1
-1:-1
0:399:1
-1:1
1:376:1
-1:-1
2:374:1
0:-1
2:368:1
0:-1
3:284:1
0:-1
2:330:1
0:-1
1:294:1
-1:-1
0:363:1
-1:-1
15:126:1
2:1
15:85:3
2:1
0:98:5
-1:0
2:55:4
0:-1
0:54:4
-1:-1
0:61:3
-1:-1
1:28:2
-1:0
0:29:1
-1:1
1:16:1
-1:-1
0:21:1
-1:-1
0:34:1
-1:1
0:18:1
-1:-1
5:15:1
1:1
0:30:2
-1:1
0:16:2
-1:-1
1:40:1
-1:-1
2:14:1
0:-1
0:26:1
-1:-1
0:9:1
-1:-1
1:6:1
-1:-1
1:13:1
-1:-1
7:14:1
1:-1
0:11:1
-1:1
0:23:1
-1:1
0:20:1
-1:1
0:21:1
-1:1
1:26:1
-1:-1
0:13:1
-1:-1
0:13:1
-1:1
0:8:1
-1:-1
0:11:1
-1:1
0:16:1
-1:-1
0:16:1
-1:-1
1:10:1
-1:1
0:28:1
-1:-1
0:9:1
-1:-1
0:19:1
-1:-1
0:25:1
-1:1
0:17:1
-1:1
0:18:1
-1:-1
0:8:1
-1:-1
0:9:1
-1:-1
0:10:1
-1:-1
0:237:1
-1:-1
0:340:1
-1:-1
0:359:1
-1:-1
1:402:1
-1:1
0:377:1
-1:-1
0:341:1
-1:-1
2:349:1
0:-1
0:286:1
-1:-1
2:324:1
0:1
2:330:2
0:-1
10:275:2
2:-1

Warmup complete CPU 0 instructions: 1000002 cycles: 657797 (Simulation time: 0 hr 0 min 2 sec) 

15:75:2
2:1
15:22:4
2:-1
9:22:4
2:1
0:32:6
-1:0
0:38:5
-1:-1
0:14:4
-1:0
0:22:3
-1:0
3:12:2
0:-1
2:14:2
0:-1
0:4:2
-1:-1
5:12:1
1:-1
4:28:1
1:1
0:18:2
-1:-1
0:11:1
-1:-1
1:18:1
-1:1
2:15:1
0:1
6:9:2
1:-1
0:4:2
-1:-1
3:11:1
0:1
0:12:2
-1:-1
3:10:1
0:1
0:17:2
-1:-1
0:3:1
-1:-1
1:7:1
-1:-1
5:2:1
1:-1
0:12:1
-1:-1
0:1:1
-1:-1
0:15:1
-1:1
0:6:1
-1:-1
0:4:1
-1:1
1:2:1
-1:-1
0:18:1
-1:-1
0:1:1
-1:-1
3:10:1
0:-1
0:7:1
-1:1
0:11:1
-1:1
0:9:1
-1:1
0:12:1
-1:-1
0:2:1
-1:-1
0:7:1
-1:1
0:6:1
-1:-1
0:1:1
-1:-1
0:5:1
-1:1
0:7:1
-1:-1
0:9:1
-1:1
0:8:1
-1:-1
3:2:1
0:-1
1:12:1
-1:-1
0:6:1
-1:-1
1:7:1
-1:1
2:3:1
0:-1
0:11:1
-1:-1
2:5:1
0:1
0:9:2
-1:-1
0:4:1
-1:-1
1:6:1
-1:-1
0:0:1
-1:-1
0:3:1
-1:-1
0:2:1
-1:-1
0:1:1
-1:-1
3:3:1
0:1
1:3:2
-1:-1
0:4:1
-1:-1
1:7:1
-1:1
0:1:1
-1:-1
3:10:1
0:-1
2:8:1
0:1
3:8:2
0:0
0:17:2
-1:1
0:10:2
-1:-1
0:1:1
-1:-1
0:4:1
-1:-1
0:1:1
-1:-1
0:3:1
-1:1
0:6:1
-1:-1
1:7:1
-1:-1
0:6:1
-1:1
1:12:1
-1:-1
0:6:1
-1:-1
1:8:1
-1:1
2:3:1
0:-1
0:10:1
-1:-1
3:4:1
0:-1
0:8:1
-1:-1
0:5:1
-1:-1
1:5:1
-1:-1
0:1:1
-1:-1
0:2:1
-1:-1
2:3:1
0:1
0:4:2
-1:-1
0:3:1
-1:-1
0:6:1
-1:1
0:2:1
-1:1
2:6:1
0:-1
0:4:1
-1:-1
0:7:1
-1:1
0:7:1
-1:1
0:12:1
-1:-1
0:10:1
-1:-1
0:1:1
-1:-1
0:5:1
-1:-1
0:1:1
-1:-1
0:4:1
-1:-1
0:6:1
-1:-1
1:8:1
-1:-1
0:5:1
-1:1
0:12:1
-1:-1
0:7:1
-1:1
1:5:1
-1:-1
1:3:1
-1:-1
0:13:1
-1:1
3:3:1
0:-1
0:8:1
-1:-1
0:5:1
-1:-1
0:4:1
-1:-1
0:2:1
-1:-1
0:3:1
-1:-1
1:3:1
-1:-1
0:1:1
-1:-1
1:7:1
-1:1
0:3:1
-1:-1
3:7:1
0:1
0:5:2
-1:-1
7:7:1
1:-1
5:6:1
1:-1
0:16:1
-1:1
2:9:1
0:-1
0:3:1
-1:-1
0:5:1
-1:-1
0:2:1
-1:-1
0:4:1
-1:-1
0:6:1
-1:-1
1:8:1
-1:-1
0:6:1
-1:1
1:14:1
-1:-1
0:6:1
-1:-1
1:3:1
-1:-1
1:1:1
-1:-1
1:3:1
-1:-1
0:11:1
-1:-1
1:4:1
-1:-1
0:11:1
-1:-1
0:5:1
-1:-1
0:6:1
-1:1
0:2:1
-1:-1
0:5:1
-1:1
0:3:1
-1:1
2:2:1
0:-1
0:4:1
-1:-1
0:3:1
-1:1
0:10:1
-1:1
0:2:1
-1:1
2:50:1
0:1
0:51:2
-1:1
0:29:2
-1:0
0:44:1
-1:1
2:58:1
0:-1
0:82:1
-1:-1
0:20:1
-1:-1
0:60:1
-1:1
1:56:1
-1:1
0:49:1
-1:-1
0:69:1
-1:1
2:42:1
0:1
2:63:2
0:-1
0:67:2
-1:-1
3:63:1
0:1
1:56:2
-1:-1
2:48:1
0:1
0:67:2
-1:-1
0:71:1
-1:1
0:40:1
-1:1
0:56:1
-1:1
0:52:1
-1:-1
0:51:1
-1:1
0:63:1
-1:1
0:52:1
-1:-1
0:64:1
-1:1
0:60:1
-1:-1
2:37:1
0:1
0:53:2
-1:-1
2:56:1
0:1
1:31:2
-1:0
0:54:1
-1:-1
0:52:1
-1:1
0:54:1
-1:-1
0:43:1
-1:1
0:57:1
-1:-1
0:47:1
-1:1
0:32:1
-1:1
0:51:1
-1:1
1:39:1
-1:1
0:42:1
-1:1
0:45:1
-1:1
0:60:1
-1:1
0:58:1
-1:1
2:36:1
0:1
0:49:2
-1:-1
0:34:1
-1:-1
2:38:1
0:1
2:58:2
0:-1
0:42:2
-1:-1
0:33:1
-1:1
3:35:1
0:1
0:34:2
-1:-1
0:35:1
-1:1
4:59:1
1:1
2:33:2
0:-1
2:47:2
0:0
0:40:2
-1:-1
0:50:1
-1:-1
3:48:1
0:1
4:49:2
1:0
2:49:3
0:-1
2:43:3
0:-1
0:38:3
-1:0
0:51:2
-1:-1
0:34:1
-1:1
0:42:1
-1:1
0:35:1
-1:-1
1:70:1
-1:1
4:80:1
1:-1
3:64:1
0:-1
0:69:1
-1:-1
0:75:1
-1:-1
2:38:1
0:1
2:40:2
0:-1
0:36:2
-1:-1
15:39:1
2:1
15:28:3
2:1
0:30:5
-1:1
0:32:5
-1:1
0:26:5
-1:-1
0:22:4
-1:0
0:13:3
-1:-1
0:11:2
-1:0
2:11:1
0:-1
2:13:1
0:-1
0:3:1
-1:-1
5:11:1
1:-1
0:29:1
-1:1
0:17:1
-1:1
0:12:1
-1:1
0:18:1
-1:1
2:12:1
0:-1
2:7:1
0:-1
0:7:1
-1:1
3:12:1
0:1
0:12:2
-1:-1
0:9:1
-1:-1
0:24:1
-1:1
0:4:1
-1:-1
0:7:1
-1:-1
2:1:1
0:-1
3:1:1
0:1
0:9:2
-1:-1
3:9:1
0:1
0:3:2
-1:0
0:8:1
-1:-1
0:7:1
-1:1
0:6:1
-1:-1
15:8:1
2:-1
0:2:1
-1:-1
3:8:1
0:-1
0:5:1
-1:-1
0:7:1
-1:-1
0:7:1
-1:-1
0:13:1
-1:-1
0:3:1
-1:-1
0:6:1
-1:1
0:6:1
-1:-1
1:1:1
-1:-1
0:4:1
-1:-1
0:7:1
-1:-1
1:8:1
-1:-1
0:6:1
-1:1
1:14:1
-1:-1
1:6:1
-1:-1
0:3:1
-1:-1
1:3:1
-1:1
0:6:1
-1:-1
1:5:1
-1:-1
0:10:1
-1:-1
0:3:1
-1:-1
0:5:1
-1:-1
0:3:1
-1:-1
1:4:1
-1:1
1:4:1
-1:-1
0:4:1
-1:-1
0:7:1
-1:-1
2:9:1
0:-1
0:7:1
-1:-1
0:10:1
-1:1
0:12:1
-1:1
0:14:1
-1:-1
0:6:1
-1:1
0:8:1
-1:1
0:7:1
-1:-1
0:1:1
-1:-1
0:4:1
-1:-1
0:6:1
-1:-1
1:6:1
-1:-1
0:5:1
-1:1
1:13:1
-1:-1
0:6:1
-1:-1
0:4:1
-1:-1
1:3:1
-1:1
0:4:1
-1:-1
3:8:1
0:-1
0:7:1
-1:-1
0:3:1
-1:-1
0:4:1
-1:-1
0:2:1
-1:-1
0:1:1
-1:-1
2:3:1
0:-1
0:4:1
-1:-1
0:8:1
-1:-1
0:5:1
-1:-1
0:3:1
-1:1
2:9:1
0:-1
3:12:1
0:1
2:10:2
0:0
0:20:2
-1:-1
0:4:1
-1:1
0:8:1
-1:-1
0:6:1
-1:-1
0:7:1
-1:-1
0:3:1
-1:1
0:5:1
-1:-1
1:8:1
-1:-1
0:7:1
-1:1
0:14:1
-1:1
2:10:1
0:1
2:6:2
0:1
0:4:3
-1:-1
0:12:2
-1:-1
0:15:1
-1:1
0:5:1
-1:-1
0:5:1
-1:-1
0:4:1
-1:-1
0:3:1
-1:-1
0:3:1
-1:1
1:3:1
-1:-1
0:8:1
-1:-1
2:27:1
0:-1
0:41:1
-1:1
2:40:1
0:-1
2:26:1
0:-1
0:43:1
-1:-1
0:58:1
-1:-1
2:67:1
0:-1
0:25:1
-1:-1
0:62:1
-1:-1
2:40:1
0:1
0:65:2
-1:-1
0:62:1
-1:1
1:46:1
-1:1
0:59:1
-1:-1
2:64:1
0:1
2:63:2
0:0
0:59:2
-1:-1
0:44:1
-1:-1
0:61:1
-1:-1
0:72:1
-1:-1
1:48:1
-1:1
2:61:1
0:1
0:50:2
-1:-1
2:42:1
0:1
0:72:2
-1:-1
1:67:1
-1:-1
0:52:1
-1:-1
0:58:1
-1:-1
2:38:1
0:1
1:61:2
-1:-1
0:54:1
-1:1
0:38:1
-1:-1
0:79:1
-1:1
0:40:1
-1:1
2:51:1
0:1
0:60:2
-1:-1
0:48:1
-1:-1
0:44:1
-1:1
0:36:1
-1:-1
2:49:1
0:1
0:41:2
-1:-1
0:42:1
-1:1
2:53:1
0:-1
0:66:1
-1:-1
0:40:1
-1:1
1:41:1
-1:-1
2:43:1
0:1
0:29:2
-1:-1
1:60:1
-1:-1
0:45:1
-1:1
3:38:1
0:-1
0:46:1
-1:-1
0:38:1
-1:1
0:30:1
-1:-1
3:61:1
0:1
0:31:2
-1:-1
0:55:1
-1:1
0:40:1
-1:1
0:44:1
-1:1
2:54:1
0:1
2:55:2
0:0
1:52:2
-1:-1
0:44:1
-1:1
2:45:1
0:1
0:43:2
-1:1
0:35:2
-1:1
2:39:2
0:1
0:39:3
-1:0
0:71:2
-1:0
2:71:1
0:1
3:66:2
0:-1
0:73:2
-1:0
3:76:1
0:-1
2:36:1
0:-1
2:39:1
0:-1
0:42:1
-1:-1
15:38:1
2:1
15:32:3
2:1
2:30:5
0:1
0:28:6
-1:1
0:30:6
-1:-1
0:21:5
-1:-1
2:14:4
0:-1
0:10:4
-1:-1
2:11:3
0:-1
0:13:3
-1:-1
2:3:2
0:-1
0:2:2
-1:-1
5:11:1
1:-1
0:31:1
-1:1
0:16:1
-1:1
0:9:1
-1:1
0:18:1
-1:1
2:15:1
0:1
0:11:2
-1:-1
0:2:1
-1:1
3:10:1
0:1
0:12:2
-1:-1
0:4:1
-1:-1
0:19:1
-1:1
0:3:1
-1:-1
0:5:1
-1:-1
3:3:1
0:1
5:1:2
1:-1
0:12:2
-1:0
0:1:1
-1:-1
0:15:1
-1:1
1:4:1
-1:-1
0:5:1
-1:-1
12:10:1
2:1
0:6:3
-1:0
0:11:2
-1:-1
0:1:1
-1:-1
3:12:1
0:-1
13:10:1
2:-1
5:6:1
1:-1
4:12:1
1:1
0:20:2
-1:-1
0:4:1
-1:-1
0:7:1
-1:1
0:9:1
-1:-1
1:2:1
-1:-1
0:5:1
-1:-1
0:8:1
-1:-1
1:8:1
-1:-1
0:8:1
-1:1
1:14:1
-1:-1
0:7:1
-1:-1
0:6:1
-1:-1
2:3:1
0:1
0:9:2
-1:-1
0:6:1
-1:-1
0:11:1
-1:1
0:4:1
-1:-1
0:4:1
-1:-1
0:2:1
-1:-1
1:3:1
-1:-1
0:2:1
-1:1
2:4:1
0:1
3:5:2
0:-1
0:5:2
-1:-1
0:1:1
-1:-1
2:9:1
0:-1
0:7:1
-1:-1
7:7:1
1:1
3:4:2
0:-1
0:16:2
-1:1
0:10:2
-1:-1
0:1:1
-1:-1
0:6:1
-1:-1
0:1:1
-1:-1
0:2:1
-1:-1
0:5:1
-1:-1
1:7:1
-1:-1
2:5:1
0:1
1:12:2
-1:-1
1:5:1
-1:-1
1:5:1
-1:1
3:3:1
0:-1
0:11:1
-1:-1
1:3:1
-1:-1
0:11:1
-1:-1
0:3:1
-1:-1
1:5:1
-1:-1
0:2:1
-1:-1
0:2:1
-1:-1
0:5:1
-1:1
0:5:1
-1:-1
1:3:1
-1:-1
0:7:1
-1:-1
1:9:1
-1:-1
0:8:1
-1:-1
0:10:1
-1:1
0:10:1
-1:1
0:12:1
-1:-1
0:10:1
-1:-1
0:2:1
-1:-1
0:5:1
-1:-1
0:1:1
-1:-1
0:3:1
-1:1
0:6:1
-1:-1
1:7:1
-1:-1
2:4:1
0:1
1:12:2
-1:-1
1:6:1
-1:-1
1:7:1
-1:1
2:2:1
0:-1
0:11:1
-1:-1
0:3:1
-1:-1
2:9:1
0:1
0:5:2
-1:-1
0:1:1
-1:-1
1:5:1
-1:-1
0:1:1
-1:-1
0:3:1
-1:-1
0:5:1
-1:1
0:7:1
-1:-1
1:4:1
-1:-1
0:3:1
-1:-1
2:8:1
0:1
2:9:2
0:1
2:8:3
0:0
0:18:3
-1:1
0:10:3
-1:-1
0:1:2
-1:-1
0:6:1
-1:-1
0:2:1
-1:-1
0:1:1
-1:-1
0:6:1
-1:-1
1:7:1
-1:-1
2:4:1
0:1
1:11:2
-1:-1
0:4:1
-1:-1
1:7:1
-1:1
2:2:1
0:-1
0:11:1
-1:-1
3:3:1
0:-1
0:8:1
-1:-1
0:5:1
-1:-1
1:5:1
-1:-1
0:2:1
-1:-1
0:3:1
-1:-1
0:2:1
-1:-1
1:4:1
-1:1
1:5:1
-1:1
0:2:1
-1:-1
6:10:1
1:1
1:4:2
-1:-1
4:49:1
1:1
0:46:2
-1:0
0:30:1
-1:1
0:39:1
-1:1
0:51:1
-1:-1
0:68:1
-1:1
0:32:1
-1:1
0:45:1
-1:1
2:56:1
0:1
0:44:2
-1:-1
2:71:1
0:1
1:38:2
-1:-1
0:45:1
-1:-1
2:76:1
0:1
2:55:2
0:-1
0:60:2
-1:0
0:62:1
-1:1
0:66:1
-1:1
2:72:1
0:1
2:45:2
0:-1
0:65:2
-1:-1
0:47:1
-1:-1
1:53:1
-1:-1
2:68:1
0:-1
0:56:1
-1:-1
0:54:1
-1:1
0:51:1
-1:-1
0:36:1
-1:1
0:51:1
-1:-1
0:45:1
-1:1
0:38:1
-1:1
0:49:1
-1:-1
0:53:1
-1:1
0:51:1
-1:-1
2:49:1
0:1
0:63:2
-1:-1
0:46:1
-1:1
0:30:1
-1:1
0:58:1
-1:1
0:45:1
-1:1
0:40:1
-1:-1
0:48:1
-1:-1
0:58:1
-1:1
1:46:1
-1:-1
2:37:1
0:-1
2:46:1
0:-1
0:43:1
-1:-1
2:42:1
0:-1
0:53:1
-1:-1
0:41:1
-1:-1
0:41:1
-1:1
0:46:1
-1:1
0:28:1
-1:-1
2:48:1
0:-1
0:42:1
-1:-1
4:51:1
1:1
3:39:2
0:-1
2:54:2
0:-1
0:43:2
-1:0
0:62:1
-1:1
2:51:1
0:-1
0:47:1
-1:-1
3:37:1
0:1
3:46:2
0:0
3:30:2
0:-1
0:39:2
-1:-1
0:41:1
-1:1
2:56:1
0:1
0:63:2
-1:0
0:71:1
-1:1
0:69:1
-1:1
0:88:1
-1:1
2:50:1
0:1
0:43:2
-1:-1
14:39:1
2:1
15:34:3
2:-1
7:31:3
1:0
15:24:4
2:0
15:27:5
2:1
0:21:7
-1:1
0:33:7
-1:-1
0:15:6
-1:-1
0:20:5
-1:0
2:11:4
0:-1
0:13:4
-1:-1
4:3:3
1:-1
0:2:3
-1:-1
5:11:2
1:0
0:23:3
-1:0
0:23:2
-1:0
0:14:1
-1:1
0:16:1
-1:1
2:13:1
0:-1
0:11:1
-1:-1
0:2:1
-1:1
3:10:1
0:1
0:12:2
-1:-1
0:8:1
-1:1
0:17:1
-1:1
0:3:1
-1:-1
2:7:1
0:-1
4:0:1
1:-1
0:11:1
-1:-1
0:1:1
-1:-1
0:15:1
-1:1
1:6:1
-1:-1
0:7:1
-1:-1
0:17:1
-1:1
0:1:1
-1:-1
3:13:1
0:-1
0:10:1
-1:-1
9:9:1
2:-1
5:7:1
1:1
0:18:2
-1:1
0:6:2
-1:1
0:7:2
-1:1
0:7:2
-1:-1
0:3:1
-1:1
0:5:1
-1:-1
0:8:1
-1:-1
1:8:1
-1:-1
0:6:1
-1:1
1:13:1
-1:-1
0:6:1
-1:-1
1:8:1
-1:1
2:3:1
0:-1
0:11:1
-1:-1
2:11:1
0:-1
0:5:1
-1:-1
0:5:1
-1:-1
1:1:1
-1:-1
2:1:1
0:-1
0:4:1
-1:-1
0:5:1
-1:-1
0:4:1
-1:-1
1:4:1
-1:-1
0:8:1
-1:-1
3:11:1
0:-1
0:9:1
-1:1
0:11:1
-1:-1
0:10:1
-1:1
0:13:1
-1:-1
0:2:1
-1:-1
0:8:1
-1:1
0:8:1
-1:-1
0:1:1
-1:-1
0:4:1
-1:-1
0:10:1
-1:-1
1:9:1
-1:-1
1:6:1
-1:1
1:13:1
-1:-1
0:6:1
-1:-1
1:7:1
-1:1
2:3:1
0:-1
0:12:1
-1:-1
2:5:1
0:-1
0:10:1
-1:-1
0:3:1
-1:-1
1:5:1
-1:-1
0:0:1
-1:-1
1:3:1
-1:-1
1:3:1
-1:1
0:1:1
-1:-1
0:6:1
-1:1
0:1:1
-1:-1
0:4:1
-1:1
0:4:1
-1:-1
0:2:1
-1:1
2:10:1
0:-1
0:5:1
-1:-1
0:9:1
-1:-1
0:9:1
-1:1
0:14:1
-1:-1
0:8:1
-1:-1
0:5:1
-1:-1
0:4:1
-1:-1
0:1:1
-1:-1
0:1:1
-1:-1
0:7:1
-1:1
1:8:1
-1:-1
1:5:1
-1:1
0:12:1
-1:-1
0:6:1
-1:-1
0:7:1
-1:-1
1:2:1
-1:1
2:3:1
0:-1
0:11:1
-1:-1
1:3:1
-1:-1
0:9:1
-1:-1
0:5:1
-1:-1
0:4:1
-1:-1
0:1:1
-1:-1
0:5:1
-1:-1
2:6:1
0:-1
1:3:1
-1:-1
0:5:1
-1:-1
1:12:1
-1:1
0:1:1
-1:-1
2:24:1
0:-1
5:48:1
1:1
0:38:2
-1:0
0:27:1
-1:1
0:45:1
-1:1
0:57:1
-1:1
1:69:1
-1:-1
0:22:1
-1:-1
0:65:1
-1:1
0:43:1
-1:1
0:64:1
-1:1
3:57:1
0:1
0:33:2
-1:-1
0:63:1
-1:1
4:69:1
1:-1
2:58:1
0:-1
0:61:1
-1:-1
0:49:1
-1:1
0:73:1
-1:-1
0:76:1
-1:1
0:48:1
-1:1
2:63:1
0:1
0:38:2
-1:-1
0:57:1
-1:1
0:68:1
-1:1
0:76:1
-1:-1
0:50:1
-1:1
0:60:1
-1:1
0:46:1
-1:1
0:47:1
-1:1
1:52:1
-1:1
0:44:1
-1:1
0:69:1
-1:1
0:51:1
-1:-1
2:45:1
0:1
3:64:2
0:-1
2:43:2
0:-1
1:42:2
-1:-1
2:38:1
0:-1
0:48:1
-1:-1
0:37:1
-1:-1
0:45:1
-1:-1
0:60:1
-1:-1
1:57:1
-1:-1
2:36:1
0:-1
2:42:1
0:-1
0:37:1
-1:-1
2:44:1
0:-1
3:51:1
0:-1
2:51:1
0:-1
0:37:1
-1:-1
2:35:1
0:-1
0:31:1
-1:-1
0:37:1
-1:-1
0:61:1
-1:1
4:37:1
1:-1
2:55:1
0:-1
0:37:1
-1:-1
1:55:1
-1:1
2:55:1
0:1
3:53:2
0:0
0:43:2
-1:0
4:43:1
1:1
2:51:2
0:-1
3:40:2
0:0
2:45:2
0:-1
1:37:2
-1:0
0:41:1
-1:-1
3:79:1
0:1
2:72:2
0:-1
1:58:2
-1:-1
0:91:1
-1:1
2:62:1
0:1
2:37:2
0:-1
6:40:2
1:-1
15:33:2
2:0
0:32:3
-1:1
15:32:3
2:0
15:32:4
2:1
1:26:6
-1:1
0:29:6
-1:-1
0:18:5
-1:-1
0:18:4
-1:-1
0:8:3
-1:-1
0:11:2
-1:-1
2:13:1
0:1
0:4:2
-1:-1
2:17:1
0:-1
1:27:1
-1:1
0:15:1
-1:-1
0:12:1
-1:1
0:16:1
-1:1
2:12:1
0:-1
0:11:1
-1:-1
0:2:1
-1:1
3:9:1
0:1
0:11:2
-1:-1
0:7:1
-1:1
0:21:1
-1:1
0:2:1
-1:-1
0:2:1
-1:-1
3:9:1
0:-1
5:2:1
1:-1
0:11:1
-1:-1
0:1:1
-1:-1
0:12:1
-1:1
1:5:1
-1:-1
0:3:1
-1:-1
0:21:1
-1:1
0:2:1
-1:-1
1:9:1
-1:-1
0:7:1
-1:-1
7:7:1
1:-1
2:3:1
0:-1
0:16:1
-1:-1
0:4:1
-1:-1
0:8:1
-1:-1
0:4:1
-1:-1
0:2:1
-1:-1
0:1:1
-1:-1
0:6:1
-1:-1
1:8:1
-1:-1
2:7:1
0:1
1:12:2
-1:-1
1:4:1
-1:-1
1:7:1
-1:-1
2:2:1
0:-1
0:10:1
-1:-1
1:7:1
-1:-1
0:9:1
-1:-1
0:3:1
-1:-1
0:5:1
-1:-1
1:2:1
-1:-1
1:1:1
-1:-1
0:2:1
-1:-1
0:1:1
-1:-1
2:3:1
0:1
1:4:2
-1:-1
0:2:1
-1:-1
1:10:1
-1:1
0:1:1
-1:-1
1:8:1
-1:-1
0:7:1
-1:-1
0:7:1
-1:-1
0:7:1
-1:-1
0:11:1
-1:-1
0:6:1
-1:1
3:10:1
0:1
0:3:2
-1:-1
0:1:1
-1:-1
0:1:1
-1:-1
0:9:1
-1:-1
1:9:1
-1:-1
2:7:1
0:1
1:12:2
-1:-1
1:4:1
-1:-1
1:8:1
-1:1
3:2:1
0:-1
0:11:1
-1:-1
3:3:1
0:-1
0:11:1
-1:-1
0:3:1
-1:-1
1:6:1
-1:-1
0:1:1
-1:-1
0:3:1
-1:-1
0:2:1
-1:1
2:5:1
0:1
1:5:2
-1:-1
0:4:1
-1:-1
0:5:1
-1:1
0:2:1
-1:-1
1:9:1
-1:-1
1:8:1
-1:-1
1:8:1
-1:-1
0:16:1
-1:-1
0:9:1
-1:1
0:4:1
-1:1
0:5:1
-1:-1
0:4:1
-1:1
0:1:1
-1:-1
0:6:1
-1:-1
1:9:1
-1:-1
2:8:1
0:1
1:11:2
-1:-1
0:4:1
-1:-1
1:8:1
-1:1
2:2:1
0:-1
0:9:1
-1:-1
1:6:1
-1:-1
0:13:1
-1:-1
0:5:1
-1:-1
1:4:1
-1:-1
2:1:1
0:-1
0:3:1
-1:-1
0:1:1
-1:-1
1:4:1
-1:1
1:3:1
-1:-1
0:2:1
-1:-1
2:6:1
0:-1
0:1:1
-1:-1
1:10:1
-1:-1
1:8:1
-1:-1
1:7:1
-1:1
0:19:1
-1:1
0:8:1
-1:-1
0:5:1
-1:1
0:7:1
-1:-1
0:2:1
-1:-1
0:3:1
-1:-1
0:8:1
-1:-1
1:9:1
-1:-1
0:6:1
-1:1
1:12:1
-1:-1
0:5:1
-1:-1
0:6:1
-1:-1
2:2:1
0:-1
0:8:1
-1:-1
0:12:1
-1:-1
0:3:1
-1:1
0:3:1
-1:-1
1:3:1
-1:-1
2:1:1
0:-1
2:3:1
0:-1
0:1:1
-1:-1
0:3:1
-1:-1
1:3:1
-1:1
0:4:1
-1:-1
0:6:1
-1:-1
0:3:1
-1:-1
6:42:1
1:1
0:49:2
-1:-1
1:23:1
-1:1
2:44:1
0:-1
2:54:1
0:-1
0:71:1
-1:-1
0:26:1
-1:1
0:43:1
-1:1
0:54:1
-1:-1
2:55:1
0:-1
2:71:1
0:-1
0:47:1
-1:-1
0:41:1
-1:-1
0:71:1
-1:-1
0:49:1
-1:1
0:58:1
-1:1
0:50:1
-1:-1
0:58:1
-1:-1
0:61:1
-1:-1
0:66:1
-1:1
3:45:1
0:-1
1:55:1
-1:-1
0:36:1
-1:1
0:55:1
-1:1
0:59:1
-1:-1
0:70:1
-1:-1
0:45:1
-1:1
0:62:1
-1:1
0:41:1
-1:-1
3:54:1
0:1
0:49:2
-1:-1
0:30:1
-1:-1
0:71:1
-1:1
0:44:1
-1:1
2:51:1
0:-1
0:55:1
-1:-1
1:50:1
-1:-1
0:39:1
-1:-1
0:26:1
-1:1
0:48:1
-1:-1
0:44:1
-1:1
0:52:1
-1:-1
2:49:1
0:-1
0:56:1
-1:-1
0:45:1
-1:-1
2:36:1
0:1
0:48:2
-1:-1
2:38:1
0:-1
0:46:1
-1:-1
0:45:1
-1:1
0:45:1
-1:1
0:31:1
-1:1
0:32:1
-1:-1
0:32:1
-1:1
2:29:1
0:-1
2:58:1
0:1
1:38:2
-1:-1
0:51:1
-1:1
2:39:1
0:1
0:45:2
-1:-1
1:50:1
-1:1
4:52:1
1:1
0:50:2
-1:-1
2:42:1
0:1
4:38:2
1:-1
5:49:2
1:-1
1:38:2
-1:-1
0:38:1
-1:-1
0:38:1
-1:1
0:63:1
-1:1
0:76:1
-1:-1
0:78:1
-1:1
0:77:1
-1:1
7:72:1
1:-1
0:41:1
-1:-1
2:41:1
0:-1
14:40:1
2:-1
15:37:1
2:1
13:34:3
2:1
15:26:5
2:1
15:28:7
2:0
5:20:8
1:0
0:37:9
-1:0
0:8:8
-1:-1
0:20:7
-1:0
2:9:6
0:-1
0:14:6
-1:-1
1:4:5
-1:-1
0:2:4
-1:-1
5:13:3
1:-1
0:22:3
-1:0
0:12:2
-1:-1
0:14:1
-1:-1
0:19:1
-1:1
2:15:1
0:1
0:10:2
-1:-1
0:2:1
-1:1
3:10:1
0:1
0:11:2
-1:-1
0:17:1
-1:-1
2:11:1
0:-1
0:3:1
-1:-1
3:6:1
0:-1
5:1:1
1:-1
0:11:1
-1:-1
0:1:1
-1:-1
0:14:1
-1:1
1:5:1
-1:-1
0:4:1
-1:-1
15:18:1
2:1
0:6:3
-1:0
1:13:2
-1:-1
2:11:1
0:1
2:11:2
0:1
0:17:3
-1:0
0:5:2
-1:0
3:12:1
0:1
0:5:2
-1:-1
0:3:1
-1:-1
0:2:1
-1:1
0:5:1
-1:-1
1:8:1
-1:-1
2:7:1
0:1
1:12:2
-1:-1
0:5:1
-1:-1
0:5:1
-1:-1
2:2:1
0:-1
0:10:1
-1:-1
3:6:1
0:-1
0:13:1
-1:-1
0:3:1
-1:-1
0:4:1
-1:-1
2:2:1
0:-1
0:5:1
-1:-1
0:2:1
-1:1
2:3:1
0:-1
0:3:1
-1:-1
1:5:1
-1:-1
0:3:1
-1:-1
1:10:1
-1:-1
1:7:1
-1:-1
1:7:1
-1:-1
0:17:1
-1:1
0:7:1
-1:1
0:6:1
-1:1
0:6:1
-1:-1
0:3:1
-1:-1
0:1:1
-1:-1
0:11:1
-1:-1
1:9:1
-1:-1
2:7:1
0:1
1:11:2
-1:-1
0:4:1
-1:-1
0:5:1
-1:-1
4:4:1
1:-1
0:11:1
-1:-1
3:6:1
0:-1
0:9:1
-1:-1
0:5:1
-1:-1
0:1:1
-1:-1
1:4:1
-1:-1
2:1:1
0:-1
0:6:1
-1:-1
1:3:1
-1:-1
1:4:1
-1:-1
0:1:1
-1:-1
4:6:1
1:1
0:16:2
-1:-1
0:2:1
-1:-1
0:15:1
-1:-1
0:13:1
-1:1
0:12:1
-1:1
0:19:1
-1:1
0:9:1
-1:1
0:10:1
-1:1
2:7:1
0:-1
0:6:1
-1:-1
0:10:1
-1:-1
0:10:1
-1:-1
2:11:1
0:-1
1:12:1
-1:-1
0:4:1
-1:-1
1:8:1
-1:1
4:4:1
1:-1
0:12:1
-1:-1
0:7:1
-1:-1
0:12:1
-1:1
0:5:1
-1:-1
1:5:1
-1:-1
2:1:1
0:-1
0:4:1
-1:-1
0:1:1
-1:-1
0:5:1
-1:-1
0:3:1
-1:1
0:6:1
-1:1
0:10:1
-1:1
3:19:1
0:-1
0:47:1
-1:-1
2:38:1
0:-1
0:32:1
-1:1
0:41:1
-1:-1
0:58:1
-1:1
0:62:1
-1:-1
0:24:1
-1:-1
2:63:1
0:-1
0:56:1
-1:-1
0:57:1
-1:1
0:62:1
-1:1
0:46:1
-1:1
0:77:1
-1:1
0:55:1
-1:1
2:57:1
0:1
1:54:2
-1:-1
0:59:1
-1:-1
0:63:1
-1:-1
0:66:1
-1:-1
2:54:1
0:1
0:61:2
-1:-1
0:31:1
-1:-1
0:53:1
-1:1
0:57:1
-1:-1
0:67:1
-1:1
1:48:1
-1:1
0:51:1
-1:-1
2:34:1
0:1
3:49:2
0:0
2:51:2
0:-1
0:32:2
-1:-1
0:75:1
-1:1
0:40:1
-1:-1
0:53:1
-1:-1
0:46:1
-1:1
1:55:1
-1:-1
0:38:1
-1:-1
0:28:1
-1:1
0:52:1
-1:-1
2:42:1
0:-1
1:46:1
-1:-1
2:47:1
0:-1
0:61:1
-1:-1
0:47:1
-1:1
2:38:1
0:1
2:47:2
0:-1
0:44:2
-1:-1
0:49:1
-1:-1
2:48:1
0:-1
0:36:1
-1:-1
0:37:1
-1:-1
0:47:1
-1:1
3:25:1
0:-1
0:55:1
-1:-1
0:40:1
-1:-1
3:50:1
0:1
2:45:2
0:-1
3:51:2
0:1
0:53:3
-1:-1
0:62:2
-1:0
0:52:1
-1:1
3:40:1
0:1
3:37:2
0:-1
2:51:2
0:0
4:30:2
1:0
0:48:3
-1:-1
0:37:2
-1:1
0:70:2
-1:0
0:74:1
-1:1
0:72:1
-1:1
4:74:1
1:1
2:72:2
0:-1
2:46:2
0:-1
3:42:2
0:-1
15:40:2
2:-1
15:39:2
2:1
12:28:4
2:0
15:28:5
2:1
15:26:7
2:0
5:24:8
1:1
0:31:9
-1:0
0:12:8
-1:-1
0:22:7
-1:0
2:18:6
0:-1
2:7:6
0:-1
0:4:6
-1:-1
5:10:5
1:-1
0:27:5
-1:0
0:19:4
-1:0
0:12:3
-1:0
0:17:2
-1:0
2:12:1
0:-1
0:11:1
-1:-1
0:2:1
-1:1
3:10:1
0:1
0:14:2
-1:-1
0:9:1
-1:1
1:19:1
-1:1
0:1:1
-1:-1
0:3:1
-1:-1
0:6:1
-1:-1
3:3:1
0:1
0:1:2
-1:-1
0:10:1
-1:-1
0:1:1
-1:-1
0:14:1
-1:1
1:4:1
-1:-1
0:2:1
-1:-1
5:12:1
1:1
0:8:2
-1:1
3:13:2
0:-1
0:8:2
-1:-1
9:9:1
2:1
4:6:3
1:-1
0:18:3
-1:0
0:4:2
-1:-1
3:9:1
0:1
0:4:2
-1:-1
0:2:1
-1:-1
0:4:1
-1:-1
0:9:1
-1:-1
1:8:1
-1:-1
0:6:1
-1:1
1:12:1
-1:-1
0:6:1
-1:-1
1:8:1
-1:1
3:4:1
0:-1
0:11:1
-1:-1
3:3:1
0:-1
2:7:1
0:-1
0:5:1
-1:-1
0:5:1
-1:-1
1:2:1
-1:-1
2:1:1
0:-1
0:5:1
-1:-1
0:1:1
-1:-1
1:4:1
-1:-1
0:5:1
-1:-1
0:4:1
-1:1
0:10:1
-1:1
0:1:1
-1:-1
3:10:1
0:-1
3:8:1
0:-1
3:8:1
0:1
0:18:2
-1:1
0:10:2
-1:-1
0:4:1
-1:-1
0:3:1
-1:-1
0:1:1
-1:-1
0:3:1
-1:1
0:6:1
-1:-1
1:8:1
-1:-1
0:6:1
-1:1
0:12:1
-1:-1
0:9:1
-1:1
1:8:1
-1:1
2:3:1
0:-1
0:10:1
-1:-1
0:3:1
-1:-1
0:11:1
-1:-1
0:3:1
-1:-1
1:5:1
-1:-1
2:1:1
0:-1
0:4:1
-1:-1
0:1:1
-1:-1
0:6:1
-1:1
1:3:1
-1:-1
0:2:1
-1:-1
0:5:1
-1:-1
3:11:1
0:-1
2:9:1
0:1
3:10:2
0:1
0:19:3
-1:1
0:8:3
-1:-1
0:4:2
-1:-1
0:7:1
-1:-1
0:3:1
-1:1
0:7:1
-1:-1
1:7:1
-1:-1
1:9:1
-1:1
0:13:1
-1:-1
0:8:1
-1:1
1:8:1
-1:1
3:4:1
0:-1
0:10:1
-1:-1
3:3:1
0:-1
0:10:1
-1:-1
0:3:1
-1:-1
1:5:1
-1:-1
2:1:1
0:-1
0:5:1
-1:-1
0:1:1
-1:-1
2:5:1
0:1
2:4:2
0:-1
0:4:2
-1:-1
0:10:1
-1:1
1:12:1
-1:-1
11:10:1
2:1
4:5:3
1:-1
3:11:3
0:1
0:21:4
-1:1
0:12:4
-1:0
0:6:3
-1:-1
0:7:2
-1:-1
0:1:1
-1:-1
0:3:1
-1:1
0:7:1
-1:-1
1:7:1
-1:-1
0:7:1
-1:1
1:13:1
-1:-1
0:6:1
-1:-1
1:8:1
-1:1
2:3:1
0:-1
0:12:1
-1:-1
1:3:1
-1:-1
2:8:1
0:-1
0:5:1
-1:-1
0:1:1
-1:-1
1:5:1
-1:-1
2:1:1
0:-1
0:4:1
-1:-1
0:1:1
-1:-1
0:5:1
-1:-1
2:6:1
0:-1
0:3:1
-1:1
0:3:1
-1:-1
0:0:1
-1:-1
3:44:1
0:-1
1:50:1
-1:-1
0:20:1
-1:-1
0:39:1
-1:-1
0:43:1
-1:-1
1:78:1
-1:1
0:30:1
-1:-1
0:43:1
-1:1
0:57:1
-1:1
0:53:1
-1:1
0:62:1
-1:-1
1:41:1
-1:-1
0:45:1
-1:-1
0:70:1
-1:1
0:53:1
-1:-1
4:55:1
1:1
1:56:2
-1:-1
0:54:1
-1:-1
0:72:1
-1:1
0:57:1
-1:-1
3:46:1
0:1
0:65:2
-1:-1
0:39:1
-1:1
0:61:1
-1:1
2:57:1
0:1
2:70:2
0:-1
0:41:2
-1:-1
2:45:1
0:1
0:43:2
-1:1
2:46:2
0:0
1:51:2
-1:0
0:27:1
-1:-1
0:84:1
-1:1
2:40:1
0:1
2:50:2
0:-1
0:49:2
-1:-1
0:46:1
-1:-1
0:43:1
-1:-1
0:35:1
-1:-1
2:51:1
0:1
1:38:2
-1:-1
2:40:1
0:-1
0:52:1
-1:-1
0:63:1
-1:1
0:43:1
-1:1
0:35:1
-1:1
0:43:1
-1:1
0:41:1
-1:1
0:56:1
-1:-1
2:44:1
0:1
0:31:2
-1:-1
0:41:1
-1:1
2:40:1
0:1
3:28:2
0:-1
0:51:2
-1:-1
2:44:1
0:1
0:45:2
-1:-1
2:40:1
0:1
3:53:2
0:0
3:57:2
0:-1
3:52:2
0:-1
0:44:2
-1:-1
1:43:1
-1:1
4:34:1
1:-1
0:44:1
-1:-1
0:28:1
-1:1
0:40:1
-1:-1
0:44:1
-1:1
0:56:1
-1:1
0:63:1
-1:1
3:69:1
0:1
0:72:2
-1:-1
2:89:1
0:-1
0:46:1
-1:-1
0:46:1
-1:1
11:43:1
2:1
15:32:3
2:0
8:27:4
2:0
15:28:5
2:1
15:23:7
2:0
1:23:8
-1:0
0:31:7
-1:-1
2:18:6
0:1
0:24:7
-1:-1
0:6:6
-1:-1
0:16:5
-1:0
2:5:4
0:-1
0:4:4
-1:-1
5:14:3
1:0
0:24:4
-1:0
0:17:3
-1:0
0:10:2
-1:0
0:18:1
-1:1
2:13:1
0:1
0:10:2
-1:-1
0:2:1
-1:1
3:10:1
0:1
0:12:2
-1:-1
2:7:1
0:1
0:14:2
-1:-1
0:4:1
-1:-1
0:5:1
-1:-1
3:3:1
0:1
5:1:2
1:-1
0:14:2
-1:0
0:1:1
-1:-1
0:13:1
-1:1
0:2:1
-1:-1
0:4:1
-1:1
0:21:1
-1:-1
0:2:1
-1:-1
1:11:1
-1:-1
1:9:1
-1:1
1:8:1
-1:1
0:18:1
-1:1
0:4:1
-1:1
3:12:1
0:1
0:5:2
-1:-1
0:2:1
-1:-1
0:0:1
-1:-1
0:7:1
-1:1
1:9:1
-1:-1
3:6:1
0:1
1:11:2
-1:-1
0:4:1
-1:-1
0:6:1
-1:-1
2:2:1
0:-1
0:11:1
-1:-1
1:3:1
-1:-1
2:9:1
0:-1
0:6:1
-1:-1
1:6:1
-1:-1
2:1:1
0:-1
2:6:1
0:-1
2:1:1
0:-1
0:6:1
-1:1
0:7:1
-1:1
0:5:1
-1:-1
0:1:1
-1:-1
2:12:1
0:-1
1:9:1
-1:1
2:9:1
0:1
0:22:2
-1:1
0:6:2
-1:0
3:12:1
0:1
0:6:2
-1:-1
0:2:1
-1:-1
0:3:1
-1:-1
0:10:1
-1:-1
1:10:1
-1:-1
2:6:1
0:1
1:13:2
-1:-1
0:5:1
-1:-1
1:8:1
-1:1
3:4:1
0:-1
0:11:1
-1:-1
0:5:1
-1:1
0:16:1
-1:1
0:3:1
-1:-1
0:2:1
-1:-1
1:5:1
-1:-1
0:1:1
-1:-1
0:4:1
-1:-1
0:1:1
-1:-1
1:3:1
-1:1
1:3:1
-1:-1
0:1:1
-1:-1
0:5:1
-1:1
1:10:1
-1:-1
0:9:1
-1:-1
9:9:1
2:-1
3:4:1
0:-1
0:21:1
-1:1
0:9:1
-1:1
0:7:1
-1:1
0:6:1
-1:-1
0:2:1
-1:-1
0:4:1
-1:-1
0:10:1
-1:-1
1:10:1
-1:-1
2:5:1
0:1
1:14:2
-1:-1
0:6:1
-1:-1
1:9:1
-1:1
3:4:1
0:-1
0:11:1
-1:-1
2:4:1
0:-1
0:13:1
-1:-1
0:3:1
-1:-1
0:1:1
-1:-1
1:5:1
-1:-1
0:1:1
-1:-1
0:6:1
-1:-1
0:2:1
-1:1
2:3:1
0:-1
0:4:1
-1:-1
1:4:1
-1:-1
0:4:1
-1:-1
0:21:1
-1:-1
7:48:1
1:1
3:36:2
0:1
0:38:3
-1:-1
4:46:2
1:0
2:76:3
0:-1
2:43:3
0:-1
1:30:3
-1:-1
0:59:2
-1:-1
0:54:1
-1:1
0:65:1
-1:1
0:54:1
-1:1
1:41:1
-1:-1
0:74:1
-1:-1
1:58:1
-1:1
2:55:1
0:1
1:55:2
-1:-1
0:60:1
-1:-1
0:68:1
-1:1
2:65:1
0:1
1:53:2
-1:-1
0:57:1
-1:-1
0:41:1
-1:-1
0:68:1
-1:1
0:55:1
-1:-1
0:74:1
-1:1
3:41:1
0:1
0:49:2
-1:-1
0:44:1
-1:1
0:44:1
-1:1
0:50:1
-1:1
1:28:1
-1:-1
0:76:1
-1:-1
2:38:1
0:-1
1:49:1
-1:-1
0:53:1
-1:-1
0:46:1
-1:-1
0:42:1
-1:1
1:41:1
-1:-1
2:48:1
0:-1
1:39:1
-1:-1
2:39:1
0:-1
0:50:1
-1:-1
0:55:1
-1:-1
0:45:1
-1:1
0:37:1
-1:1
0:47:1
-1:1
0:41:1
-1:1
0:59:1
-1:1
0:38:1
-1:1
3:37:1
0:-1
0:44:1
-1:-1
0:34:1
-1:1
2:28:1
0:1
0:59:2
-1:-1
2:35:1
0:-1
2:51:1
0:-1
0:38:1
-1:-1
0:49:1
-1:1
3:53:1
0:1
4:51:2
1:-1
2:56:2
0:-1
2:40:2
0:0
0:39:2
-1:0
0:53:1
-1:1
0:35:1
-1:1
1:38:1
-1:-1
0:39:1
-1:-1
0:71:1
-1:1
0:77:1
-1:1
0:64:1
-1:1
1:71:1
-1:1
2:74:1
0:1
0:42:2
-1:-1
2:46:1
0:1
15:30:2
2:-1
15:38:2
2:1
15:36:4
2:1
15:29:6
2:0
15:27:7
2:-1
3:17:7
0:0
0:30:7
-1:0
2:15:6
0:-1
3:23:6
0:-1
4:7:6
1:-1
1:14:6
-1:-1
2:5:5
0:-1
0:3:5
-1:-1
5:12:4
1:0
0:26:5
-1:0
0:18:4
-1:0
0:9:3
-1:0
0:20:2
-1:0
2:15:1
0:1
0:10:2
-1:-1
0:2:1
-1:1
3:10:1
0:1
0:14:2
-1:-1
0:7:1
-1:1
0:15:1
-1:-1
0:2:1
-1:-1
0:2:1
-1:-1
0:5:1
-1:-1
3:3:1
0:1
5:1:2
1:-1
0:10:2
-1:0
0:1:1
-1:-1
0:15:1
-1:1
1:6:1
-1:1
0:3:1
-1:-1
6:9:1
1:1
0:15:2
-1:0
1:10:1
-1:-1
1:8:1
-1:-1
1:8:1
-1:-1
2:20:1
0:-1
0:6:1
-1:-1
3:10:1
0:1
0:4:2
-1:-1
0:1:1
-1:-1
0:1:1
-1:-1
0:6:1
-1:-1
0:9:1
-1:-1
2:13:1
0:-1
1:11:1
-1:-1
0:4:1
-1:-1
1:7:1
-1:-1
3:3:1
0:-1
0:11:1
-1:-1
2:6:1
0:-1
0:10:1
-1:-1
0:2:1
-1:-1
0:5:1
-1:-1
1:1:1
-1:-1
0:1:1
-1:-1
1:5:1
-1:-1
0:2:1
-1:1
0:4:1
-1:1
0:3:1
-1:1
1:3:1
-1:-1
0:5:1
-1:-1
1:10:1
-1:-1
1:8:1
-1:1
1:8:1
-1:1
2:20:1
0:-1
0:8:1
-1:-1
0:7:1
-1:1
0:6:1
-1:-1
0:2:1
-1:-1
0:2:1
-1:1
0:7:1
-1:-1
1:9:1
-1:-1
2:6:1
0:1
1:11:2
-1:-1
0:5:1
-1:-1
1:8:1
-1:1
3:3:1
0:-1
0:7:1
-1:-1
1:6:1
-1:-1
0:9:1
-1:-1
0:1:1
-1:-1
1:4:1
-1:-1
0:1:1
-1:-1
0:3:1
-1:-1
0:1:1
-1:-1
0:3:1
-1:-1
2:5:1
0:1
0:4:2
-1:-1
0:8:1
-1:-1
0:4:1
-1:-1
0:2:1
-1:1
0:10:1
-1:-1
10:10:1
2:1
3:4:3
0:-1
2:10:3
0:1
2:21:4
0:1
0:11:5
-1:-1
0:7:4
-1:0
0:5:3
-1:-1
0:3:2
-1:-1
0:2:1
-1:1
0:5:1
-1:-1
1:8:1
-1:-1
2:6:1
0:1
1:11:2
-1:-1
0:6:1
-1:-1
0:6:1
-1:-1
2:2:1
0:-1
0:10:1
-1:-1
0:6:1
-1:-1
0:14:1
-1:1
0:5:1
-1:-1
1:5:1
-1:-1
2:1:1
0:-1
0:7:1
-1:-1
2:5:1
0:1
1:3:2
-1:-1
0:2:1
-1:-1
0:9:1
-1:1
0:1:1
-1:-1
2:12:1
0:-1
2:11:1
0:1
1:9:2
-1:1
2:19:2
0:1
0:6:3
-1:-1
0:7:2
-1:1
1:6:2
-1:-1
0:4:1
-1:-1
0:3:1
-1:-1
0:6:1
-1:-1
1:8:1
-1:-1
2:6:1
0:1
1:11:2
-1:-1
0:5:1
-1:-1
1:8:1
-1:1
2:2:1
0:-1
0:10:1
-1:-1
0:6:1
-1:-1
0:13:1
-1:1
0:3:1
-1:-1
0:3:1
-1:-1
1:5:1
-1:-1
0:1:1
-1:-1
2:1:1
0:-1
0:5:1
-1:-1
0:1:1
-1:-1
0:3:1
-1:-1
1:3:1
-1:-1
0:1:1
-1:-1
1:4:1
-1:-1
0:1:1
-1:-1
3:50:1
0:1
2:46:2
0:1
0:24:3
-1:-1
0:36:2
-1:1
3:60:2
0:1
0:69:3
-1:0
0:24:2
-1:0
2:66:1
0:-1
2:46:1
0:-1
0:65:1
-1:-1
2:58:1
0:1
0:43:2
-1:0
0:61:1
-1:-1
0:59:1
-1:1
2:62:1
0:1
0:60:2
-1:-1
0:47:1
-1:1
0:62:1
-1:1
2:75:1
0:1
0:45:2
-1:-1
0:61:1
-1:-1
0:44:1
-1:1
2:53:1
0:-1
0:60:1
-1:-1
0:68:1
-1:1
0:48:1
-1:-1
1:54:1
-1:1
3:40:1
0:-1
3:44:1
0:-1
0:50:1
-1:-1
0:30:1
-1:-1
0:66:1
-1:1
0:48:1
-1:-1
0:49:1
-1:-1
0:47:1
-1:1
2:59:1
0:-1
0:37:1
-1:-1
0:24:1
-1:-1
0:52:1
-1:1
0:45:1
-1:1
3:47:1
0:1
0:49:2
-1:-1
0:64:1
-1:-1
1:44:1
-1:-1
0:26:1
-1:-1
0:45:1
-1:1
1:40:1
-1:1
0:54:1
-1:-1
2:47:1
0:1
0:35:2
-1:-1
0:42:1
-1:1
2:42:1
0:1
3:24:2
0:-1
0:54:2
-1:-1
2:42:1
0:-1
0:42:1
-1:-1
0:40:1
-1:1
1:54:1
-1:1
0:45:1
-1:-1
4:56:1
1:1
2:55:2
0:-1
0:46:2
-1:-1
2:26:1
0:-1
0:46:1
-1:-1
0:41:1
-1:1
0:36:1
-1:-1
0:44:1
-1:1
3:45:1
0:1
0:71:2
-1:0
0:75:1
-1:1
0:76:1
-1:1
5:83:1
1:-1
0:48:1
-1:1
1:42:1
-1:1
7:39:1
1:1
15:33:2
2:1
15:35:4
2:1
15:30:6
2:-1
15:28:6
2:0
0:28:7
-1:1
0:29:7
-1:-1
0:15:6
-1:-1
0:24:5
-1:-1
0:7:4
-1:0
0:15:3
-1:0
2:5:2
0:-1
0:4:2
-1:-1
5:11:1
1:-1
0:27:1
-1:1
0:18:1
-1:1
0:13:1
-1:1
0:16:1
-1:1
2:12:1
0:-1
0:10:1
-1:-1
0:2:1
-1:1
3:11:1
0:1
0:11:2
-1:-1
6:12:1
1:1
2:14:2
0:1
0:3:3
-1:-1
0:2:2
-1:-1
3:8:1
0:-1
5:1:1
1:-1
0:14:1
-1:-1
0:2:1
-1:-1
0:15:1
-1:1
2:4:1
0:-1
0:8:1
-1:1
7:11:1
1:-1
0:7:1
-1:1
0:17:1
-1:1
1:12:1
-1:-1
0:11:1
-1:-1
10:10:1
2:-1
3:5:1
0:1
2:20:2
0:0
0:8:2
-1:-1
3:15:1
0:1
0:4:2
-1:-1
0:2:1
-1:-1
0:3:1
-1:1
0:9:1
-1:-1
1:12:1
-1:1
0:10:1
-1:-1
0:4:1
-1:1
0:12:1
-1:-1
2:6:1
0:1
1:8:2
-1:0
4:4:1
1:-1
0:11:1
-1:-1
0:10:1
-1:-1
0:12:1
-1:1
0:4:1
-1:-1
1:6:1
-1:-1
0:2:1
-1:-1
0:4:1
-1:-1
0:5:1
-1:1
2:6:1
0:1
0:3:2
-1:-1
1:7:1
-1:-1
0:2:1
-1:1
1:11:1
-1:-1
0:12:1
-1:-1
8:8:1
2:-1
2:6:1
0:1
2:21:2
0:1
0:5:3
-1:-1
0:12:2
-1:1
0:5:2
-1:-1
0:3:1
-1:-1
0:2:1
-1:-1
0:12:1
-1:-1
1:10:1
-1:-1
0:7:1
-1:1
1:12:1
-1:-1
0:4:1
-1:-1
0:6:1
-1:-1
5:5:1
1:-1
0:12:1
-1:-1
0:6:1
-1:-1
0:11:1
-1:-1
0:3:1
-1:-1
1:5:1
-1:-1
2:1:1
0:-1
0:5:1
-1:-1
0:1:1
-1:-1
1:4:1
-1:1
1:4:1
-1:-1
0:1:1
-1:-1
1:9:1
-1:1
0:1:1
-1:-1
2:9:1
0:-1
0:6:1
-1:-1
7:7:1
1:1
3:4:2
0:-1
0:15:2
-1:0
2:9:1
0:-1
0:2:1
-1:-1
0:6:1
-1:-1
0:2:1
-1:-1
0:3:1
-1:-1
0:8:1
-1:-1
1:9:1
-1:-1
0:10:1
-1:1
1:12:1
-1:-1
0:6:1
-1:-1
0:5:1
-1:-1
2:3:1
0:1
0:10:2
-1:-1
2:6:1
0:-1
0:10:1
-1:-1
0:3:1
-1:-1
1:5:1
-1:-1
0:1:1
-1:-1
0:4:1
-1:-1
0:3:1
-1:-1
1:5:1
-1:1
0:4:1
-1:-1
0:5:1
-1:-1
0:24:1
-1:-1
0:47:1
-1:1
3:30:1
0:1
4:30:2
1:-1
0:41:2
-1:-1
4:55:1
1:1
0:65:2
-1:-1
0:24:1
-1:-1
2:62:1
0:-1
2:50:1
0:-1
0:64:1
-1:-1
0:62:1
-1:1
0:39:1
-1:1
2:76:1
0:1
2:55:2
0:-1
0:57:2
-1:-1
0:54:1
-1:-1
0:58:1
-1:-1
0:66:1
-1:-1
0:64:1
-1:-1
3:49:1
0:1
0:69:2
-1:-1
0:37:1
-1:-1
2:57:1
0:1
0:56:2
-1:-1
2:80:1
0:-1
0:49:1
-1:-1
0:48:1
-1:1
0:44:1
-1:1
2:44:1
0:1
0:44:2
-1:0
1:37:1
-1:1
0:76:1
-1:-1
0:42:1
-1:-1
0:48:1
-1:-1
0:55:1
-1:-1
0:54:1
-1:-1
2:39:1
0:1
0:42:2
-1:-1
2:44:1
0:1
2:44:2
0:-1
2:38:2
0:-1
0:56:2
-1:-1
0:62:1
-1:1
0:42:1
-1:1
2:43:1
0:-1
2:47:1
0:-1
0:29:1
-1:-1
0:61:1
-1:1
1:39:1
-1:-1
0:38:1
-1:-1
0:52:1
-1:1
0:34:1
-1:-1
1:35:1
-1:-1
0:57:1
-1:-1
3:35:1
0:1
0:49:2
-1:-1
1:40:1
-1:-1
1:46:1
-1:-1
1:52:1
-1:-1
2:53:1
0:1
0:53:2
-1:-1
4:43:1
1:-1
0:38:1
-1:-1
0:47:1
-1:-1
0:36:1
-1:1
2:40:1
0:1
0:36:2
-1:-1
1:69:1
-1:1
0:62:1
-1:-1
0:70:1
-1:1
0:80:1
-1:1
2:77:1
0:-1
0:41:1
-1:-1
0:41:1
-1:1
14:40:1
2:-1
15:36:1
2:-1
8:29:1
2:1
15:25:3
2:1
15:26:5
2:0
0:22:6
-1:1
0:32:6
-1:-1
2:18:5
0:-1
0:25:5
-1:-1
0:5:4
-1:0
0:15:3
-1:0
2:5:2
0:-1
0:4:2
-1:-1
5:10:1
1:-1
0:24:1
-1:-1
0:22:1
-1:1
0:13:1
-1:1
0:16:1
-1:1
2:13:1
0:-1
0:10:1
-1:-1
0:2:1
-1:1
3:12:1
0:1
0:12:2
-1:-1
0:9:1
-1:1
0:20:1
-1:1
0:2:1
-1:-1
0:5:1
-1:-1
3:3:1
0:1
0:2:2
-1:-1
0:8:1
-1:-1
0:6:1
-1:1
0:1:1
-1:-1
0:14:1
-1:1
1:3:1
-1:-1
0:5:1
-1:-1
15:11:1
2:-1
0:4:1
-1:-1
1:11:1
-1:-1
1:9:1
-1:-1
0:7:1
-1:-1
0:7:1
-1:-1
0:15:1
-1:-1
0:1:1
-1:-1
3:14:1
0:1
0:6:2
-1:-1
0:1:1
-1:-1
0:2:1
-1:1
0:6:1
-1:-1
1:8:1
-1:-1
2:7:1
0:1
1:12:2
-1:-1
1:5:1
-1:-1
0:8:1
-1:1
0:2:1
-1:-1
0:2:1
-1:-1
0:13:1
-1:-1
1:13:1
-1:1
1:2:1
-1:-1
0:1:1
-1:-1
0:4:1
-1:-1
0:1:1
-1:-1
0:1:1
-1:-1
0:4:1
-1:-1
0:1:1
-1:-1
1:5:1
-1:1
2:6:1
0:-1
1:7:1
-1:-1
0:4:1
-1:-1
0:1:1
-1:-1
3:11:1
0:-1
0:8:1
-1:-1
10:10:1
2:1
3:4:3
0:-1
0:19:3
-1:1
0:7:3
-1:-1
3:12:2
0:1
0:5:3
-1:-1
0:2:2
-1:-1
0:3:1
-1:1
0:7:1
-1:-1
1:8:1
-1:-1
1:6:1
-1:1
0:12:1
-1:-1
1:7:1
-1:-1
1:7:1
-1:1
3:5:1
0:-1
0:10:1
-1:-1
0:8:1
-1:-1
0:7:1
-1:-1
0:5:1
-1:-1
1:5:1
-1:-1
0:1:1
-1:-1
1:5:1
-1:-1
0:1:1
-1:-1
2:5:1
0:1
1:4:2
-1:0
0:2:1
-1:-1
0:7:1
-1:-1
2:12:1
0:-1
0:10:1
-1:-1
10:10:1
2:1
3:4:3
0:-1
2:20:3
0:0
0:7:3
-1:-1
0:11:2
-1:1
1:6:2
-1:-1
0:2:1
-1:-1
0:2:1
-1:1
0:7:1
-1:-1
1:8:1
-1:-1
2:7:1
0:1
1:12:2
-1:-1
1:5:1
-1:-1
1:7:1
-1:1
3:3:1
0:-1
0:13:1
-1:-1
2:3:1
0:-1
0:10:1
-1:-1
0:3:1
-1:-1
1:5:1
-1:-1
0:1:1
-1:-1
0:6:1
-1:-1
0:1:1
-1:-1
0:4:1
-1:1
0:7:1
-1:-1
1:5:1
-1:-1
0:7:1
-1:-1
0:2:1
-1:1
1:11:1
-1:-1
0:11:1
-1:1
0:12:1
-1:-1
10:10:1
2:-1
0:18:1
-1:1
0:7:1
-1:-1
3:8:1
0:1
0:6:2
-1:-1
0:2:1
-1:-1
0:1:1
-1:-1
0:9:1
-1:1
0:10:1
-1:-1
3:8:1
0:-1
1:15:1
-1:-1
3:4:1
0:-1
1:8:1
-1:1
4:4:1
1:-1
0:11:1
-1:-1
0:7:1
-1:-1
0:10:1
-1:-1
0:3:1
-1:-1
1:5:1
-1:-1
0:2:1
-1:-1
0:6:1
-1:-1
0:2:1
-1:-1
3:5:1
0:1
1:2:2
-1:-1
0:5:1
-1:-1
0:4:1
-1:1
0:1:1
-1:-1
0:36:1
-1:-1
0:49:1
-1:-1
1:25:1
-1:1
3:32:1
0:-1
2:52:1
0:1
0:80:2
-1:-1
0:20:1
-1:-1
1:56:1
-1:1
0:47:1
-1:-1
0:54:1
-1:1
0:69:1
-1:1
0:43:1
-1:1
1:55:1
-1:1
0:66:1
-1:-1
1:55:1
-1:-1
0:59:1
-1:-1
0:55:1
-1:1
0:68:1
-1:-1
0:70:1
-1:1
0:37:1
-1:1
0:58:1
-1:1
1:49:1
-1:1
0:53:1
-1:1
0:67:1
-1:1
0:57:1
-1:-1
0:51:1
-1:1
0:58:1
-1:-1
3:36:1
0:1
1:54:2
-1:-1
0:51:1
-1:1
0:33:1
-1:-1
0:75:1
-1:1
2:49:1
0:1
0:52:2
-1:-1
0:52:1
-1:1
0:44:1
-1:-1
0:42:1
-1:1
2:35:1
0:-1
2:49:1
0:-1
1:33:1
-1:-1
2:41:1
0:-1
0:49:1
-1:-1
0:59:1
-1:-1
0:46:1
-1:1
0:34:1
-1:1
3:38:1
0:1
3:44:2
0:-1
2:55:2
0:-1
0:42:2
-1:0
3:34:1
0:-1
0:47:1
-1:-1
0:40:1
-1:1
0:39:1
-1:-1
0:57:1
-1:1
3:36:1
0:1
0:38:2
-1:0
4:41:1
1:-1
1:43:1
-1:-1
0:56:1
-1:-1
1:54:1
-1:1
2:45:1
0:1
3:40:2
0:0
0:40:2
-1:0
0:50:1
-1:-1
0:32:1
-1:1
0:39:1
-1:1
0:33:1
-1:-1
2:67:1
0:1
0:67:2
-1:0
0:68:1
-1:1
2:77:1
0:1
0:69:2
-1:-1
3:40:1
0:1
3:45:2
0:-1
13:33:2
2:1
15:35:4
2:0
9:33:5
2:0
15:26:6
2:1
15:24:8
2:0
0:26:9
-1:1
0:34:9
-1:-1
2:12:8
0:-1
0:25:8
-1:-1
0:6:7
-1:-1
0:15:6
-1:0
2:5:5
0:-1
0:4:5
-1:-1
5:12:4
1:0
0:26:5
-1:0
0:20:4
-1:0
0:13:3
-1:0
0:18:2
-1:0
2:11:1
0:-1
0:10:1
-1:-1
0:2:1
-1:1
3:10:1
0:1
0:10:2
-1:-1
8:14:1
2:1
0:11:3
-1:0
0:2:2
-1:-1
0:2:1
-1:-1
3:8:1
0:-1
5:1:1
1:-1
5:11:1
1:-1
0:1:1
-1:-1
0:13:1
-1:1
1:4:1
-1:-1
0:5:1
-1:-1
15:18:1
2:1
0:3:3
-1:0
1:9:2
-1:-1
0:8:1
-1:-1
0:9:1
-1:-1
0:8:1
-1:-1
0:14:1
-1:-1
0:6:1
-1:-1
3:14:1
0:1
0:3:2
-1:-1
0:2:1
-1:-1
0:3:1
-1:-1
0:9:1
-1:-1
1:10:1
-1:-1
2:7:1
0:1
1:12:2
-1:-1
1:4:1
-1:-1
1:8:1
-1:1
3:2:1
0:-1
0:11:1
-1:-1
3:3:1
0:-1
0:10:1
-1:-1
0:3:1
-1:-1
0:5:1
-1:-1
0:1:1
-1:-1
0:5:1
-1:-1
0:1:1
-1:-1
0:5:1
-1:1
4:4:1
1:-1
0:6:1
-1:-1
0:2:1
-1:-1
1:13:1
-1:-1
0:9:1
-1:-1
9:9:1
2:-1
2:4:1
0:-1
0:21:1
-1:1
2:9:1
0:-1
2:7:1
0:-1
0:7:1
-1:-1
0:6:1
-1:-1
1:1:1
-1:-1
0:4:1
-1:-1
0:12:1
-1:-1
1:10:1
-1:-1
0:8:1
-1:1
0:14:1
-1:-1
1:7:1
-1:1
1:7:1
-1:1
1:1:1
-1:-1
4:5:1
1:-1
0:12:1
-1:-1
2:5:1
0:-1
0:10:1
-1:-1
0:3:1
-1:-1
0:1:1
-1:-1
1:5:1
-1:-1
2:1:1
0:-1
0:10:1
-1:1
0:1:1
-1:-1
3:5:1
0:-1
1:2:1
-1:-1
0:4:1
-1:-1
8:12:1
2:1
0:2:3
-1:-1
1:14:2
-1:-1
0:12:1
-1:-1
11:11:1
2:-1
3:6:1
0:-1
2:22:1
0:1
0:9:2
-1:-1
0:11:1
-1:1
0:5:1
-1:-1
0:4:1
-1:-1
0:2:1
-1:-1
0:9:1
-1:-1
1:10:1
-1:-1
0:8:1
-1:1
0:12:1
-1:-1
1:5:1
-1:-1
0:8:1
-1:1
3:4:1
0:-1
0:9:1
-1:-1
2:7:1
0:-1
0:10:1
-1:-1
0:3:1
-1:-1
1:5:1
-1:-1
0:1:1
-1:-1
0:7:1
-1:-1
0:4:1
-1:-1
0:6:1
-1:1
1:4:1
-1:-1
1:8:1
-1:1
0:4:1
-1:-1
4:28:1
1:-1
0:38:1
-1:-1
4:29:1
1:1
0:33:2
-1:-1
0:49:1
-1:1
0:65:1
-1:1
2:51:1
0:1
1:25:2
-1:-1
0:67:1
-1:-1
2:53:1
0:-1
0:60:1
-1:-1
0:63:1
-1:1
0:37:1
-1:-1
0:70:1
-1:1
0:60:1
-1:1
2:57:1
0:1
1:54:2
-1:-1
0:61:1
-1:-1
0:63:1
-1:1
0:61:1
-1:1
2:53:1
0:1
0:61:2
-1:-1
1:37:1
-1:-1
0:57:1
-1:-1
0:55:1
-1:1
0:64:1
-1:1
0:47:1
-1:1
2:56:1
0:-1
0:48:1
-1:1
2:43:1
0:1
1:46:2
-1:-1
0:32:1
-1:-1
0:75:1
-1:1
2:40:1
0:1
0:43:2
-1:-1
0:51:1
-1:1
0:45:1
-1:1
0:35:1
-1:1
0:26:1
-1:1
0:51:1
-1:-1
0:38:1
-1:-1
0:52:1
-1:-1
2:49:1
0:-1
0:62:1
-1:-1
0:50:1
-1:1
0:32:1
-1:1
0:47:1
-1:-1
0:38:1
-1:1
0:46:1
-1:-1
2:50:1
0:-1
0:36:1
-1:-1
0:43:1
-1:-1
0:39:1
-1:-1
3:24:1
0:-1
0:56:1
-1:-1
0:40:1
-1:-1
3:39:1
0:1
0:40:2
-1:-1
0:45:1
-1:1
2:57:1
0:1
0:50:2
-1:-1
2:55:1
0:-1
2:49:1
0:1
2:29:2
0:-1
0:47:2
-1:-1
0:41:1
-1:1
0:37:1
-1:-1
0:43:1
-1:1
2:49:1
0:1
2:70:2
0:0
0:71:2
-1:0
0:74:1
-1:1
0:77:1
-1:-1
2:49:1
0:1
0:44:2
-1:-1
0:37:1
-1:1
13:35:1
2:1
15:36:3
2:0
15:29:4
2:0
10:28:5
2:1
0:23:7
-1:1
0:21:7
-1:-1
0:38:6
-1:0
2:14:5
0:-1
0:15:5
-1:-1
0:10:4
-1:-1
2:14:3
0:-1
0:4:3
-1:-1
5:11:2
1:0
0:28:3
-1:1
0:15:3
-1:0
0:11:2
-1:0
0:19:1
-1:1
2:15:1
0:1
0:10:2
-1:-1
0:2:1
-1:1
3:10:1
0:1
2:9:2
0:-1
0:9:2
-1:-1
0:14:1
-1:1
0:3:1
-1:-1
3:8:1
0:-1
5:1:1
1:-1
0:13:1
-1:-1
0:1:1
-1:-1
0:15:1
-1:1
1:6:1
-1:1
0:2:1
-1:-1
1:8:1
-1:-1
0:18:1
-1:-1
0:1:1
-1:-1
2:13:1
0:-1
0:10:1
-1:-1
9:9:1
2:1
3:5:3
0:-1
0:22:3
-1:1
0:9:3
-1:-1
3:17:2
0:1
0:8:3
-1:-1
0:3:2
-1:-1
0:2:1
-1:1
0:10:1
-1:-1
1:9:1
-1:-1
2:8:1
0:1
1:12:2
-1:-1
1:5:1
-1:-1
1:8:1
-1:1
3:3:1
0:-1
2:12:1
0:-1
1:7:1
-1:1
0:8:1
-1:-1
0:5:1
-1:-1
1:6:1
-1:-1
2:1:1
0:-1
0:5:1
-1:-1
0:1:1
-1:-1
0:5:1
-1:1
0:6:1
-1:1
0:8:1
-1:1
2:14:1
0:-1
0:11:1
-1:-1
10:10:1
2:-1
3:5:1
0:-1
2:20:1
0:1
0:2:2
-1:-1
3:11:1
0:1
0:6:2
-1:-1
0:2:1
-1:-1
0:2:1
-1:1
0:7:1
-1:-1
1:8:1
-1:-1
2:9:1
0:1
1:11:2
-1:-1
0:5:1
-1:-1
1:8:1
-1:1
3:3:1
0:-1
0:11:1
-1:-1
3:4:1
0:-1
0:8:1
-1:-1
0:4:1
-1:-1
0:2:1
-1:-1
1:5:1
-1:-1
0:3:1
-1:1
0:2:1
-1:-1
0:5:1
-1:-1
2:4:1
0:1
1:3:2
-1:-1
0:1:1
-1:-1
0:4:1
-1:-1
0:6:1
-1:1
1:10:1
-1:-1
1:9:1
-1:-1
0:9:1
-1:-1
0:8:1
-1:-1
0:13:1
-1:-1
0:7:1
-1:-1
0:5:1
-1:-1
0:8:1
-1:-1
0:1:1
-1:-1
0:3:1
-1:1
0:6:1
-1:-1
1:9:1
-1:-1
2:7:1
0:1
1:13:2
-1:-1
2:5:1
0:-1
1:7:1
-1:1
1:1:1
-1:-1
2:2:1
0:-1
0:10:1
-1:-1
1:9:1
-1:-1
2:9:1
0:-1
0:5:1
-1:-1
0:2:1
-1:-1
0:4:1
-1:-1
0:6:1
-1:-1
0:1:1
-1:-1
2:5:1
0:1
3:4:2
0:-1
1:5:2
-1:-1
0:10:1
-1:1
0:3:1
-1:-1
3:11:1
0:-1
0:11:1
-1:-1
0:14:1
-1:1
0:14:1
-1:1
0:15:1
-1:-1
2:8:1
0:-1
0:3:1
-1:-1
0:6:1
-1:-1
1:3:1
-1:-1
0:6:1
-1:-1
0:9:1
-1:-1
1:9:1
-1:-1
0:5:1
-1:1
0:14:1
-1:-1
1:8:1
-1:-1
1:7:1
-1:1
2:3:1
0:-1
0:10:1
-1:-1
0:6:1
-1:-1
0:15:1
-1:1
0:3:1
-1:-1
1:5:1
-1:-1
0:1:1
-1:-1
4:7:1
1:-1
0:3:1
-1:1
0:1:1
-1:-1
3:4:1
0:1
1:3:2
-1:-1
0:2:1
-1:-1
1:4:1
-1:1
0:6:1
-1:-1
4:43:1
1:1
2:43:2
0:0
0:29:2
-1:-1
3:32:1
0:1
0:50:2
-1:1
2:65:2
0:0
0:22:2
-1:-1
1:52:1
-1:1
0:51:1
-1:-1
3:60:1
0:-1
0:66:1
-1:-1
0:43:1
-1:1
0:56:1
-1:1
2:63:1
0:1
0:57:2
-1:0
1:57:1
-1:-1
0:51:1
-1:-1
0:65:1
-1:1
2:72:1
0:-1
0:41:1
-1:-1
1:60:1
-1:-1
0:44:1
-1:-1
0:46:1
-1:1
0:58:1
-1:1
0:57:1
-1:1
2:71:1
0:-1
3:49:1
0:-1
0:45:1
-1:-1
2:42:1
0:-1
1:45:1
-1:-1
0:41:1
-1:1
0:47:1
-1:1
0:55:1
-1:1
0:51:1
-1:-1
0:37:1
-1:1
2:61:1
0:-1
1:43:1
-1:-1
0:35:1
-1:-1
2:42:1
0:1
0:44:2
-1:-1
0:39:1
-1:-1
1:48:1
-1:-1
0:63:1
-1:-1
0:58:1
-1:1
0:32:1
-1:-1
0:47:1
-1:1
0:37:1
-1:1
0:39:1
-1:-1
0:56:1
-1:1
0:47:1
-1:1
0:41:1
-1:1
2:35:1
0:-1
0:38:1
-1:-1
3:40:1
0:1
3:49:2
0:-1
3:34:2
0:-1
2:50:2
0:-1
0:49:2
-1:-1
2:58:1
0:1
3:42:2
0:-1
0:57:2
-1:-1
0:47:1
-1:1
0:39:1
-1:1
0:45:1
-1:-1
3:38:1
0:-1
2:43:1
0:-1
0:43:1
-1:1
2:52:1
0:1
0:67:2
-1:0
0:75:1
-1:1
0:71:1
-1:1
5:80:1
1:-1
2:45:1
0:1
0:35:2
-1:-1
0:45:1
-1:1
13:36:1
2:1
15:33:3
2:1
15:35:5
2:0
14:33:6
2:1
0:33:8
-1:1
0:25:8
-1:-1
2:29:7
0:0
0:21:7
-1:-1
0:4:6
-1:-1
2:10:5
0:-1
2:14:5
0:-1
0:4:5
-1:-1
5:11:4
1:0
0:26:5
-1:0
0:19:4
-1:0
0:10:3
-1:0
0:21:2
-1:0
2:14:1
0:1
0:11:2
-1:-1
0:2:1
-1:1
3:10:1
0:1
0:15:2
-1:-1
2:10:1
0:1
0:18:2
-1:-1
0:3:1
-1:-1
0:7:1
-1:-1
3:4:1
0:1
5:1:2
1:-1
0:11:2
-1:0
0:1:1
-1:-1
0:15:1
-1:1
1:7:1
-1:-1
1:4:1
-1:-1
0:20:1
-1:-1
0:1:1
-1:-1
1:9:1
-1:-1
2:11:1
0:-1
0:9:1
-1:-1
0:11:1
-1:1
0:17:1
-1:-1
0:3:1
-1:-1
3:12:1
0:1
0:6:2
-1:-1
0:1:1
-1:-1
0:3:1
-1:1
0:8:1
-1:-1
1:8:1
-1:-1
0:6:1
-1:1
0:12:1
-1:-1
2:8:1
0:1
1:7:2
-1:0
3:4:1
0:-1
0:13:1
-1:-1
2:5:1
0:1
0:10:2
-1:-1
0:3:1
-1:-1
1:5:1
-1:-1
0:1:1
-1:-1
0:7:1
-1:-1
0:1:1
-1:-1
2:8:1
0:1
2:5:2
0:1
0:5:3
-1:-1
2:6:2
0:-1
0:3:2
-1:1
3:12:2
0:-1
3:12:2
0:1
2:9:3
0:0
2:22:3
0:1
0:7:4
-1:-1
3:15:3
0:0
0:6:3
-1:-1
0:2:2
-1:-1
0:3:1
-1:1
0:7:1
-1:-1
1:10:1
-1:-1
1:8:1
-1:1
1:13:1
-1:-1
1:7:1
-1:-1
1:8:1
-1:1
3:4:1
0:-1
0:12:1
-1:-1
1:4:1
-1:-1
0:14:1
-1:-1
0:3:1
-1:-1
1:5:1
-1:-1
0:1:1
-1:-1
0:2:1
-1:-1
0:8:1
-1:-1
0:1:1
-1:-1
0:4:1
-1:1
0:6:1
-1:1
0:11:1
-1:-1
2:12:1
0:-1
1:10:1
-1:1
1:11:1
-1:-1
5:20:1
1:1
0:7:2
-1:-1
0:8:1
-1:-1
0:9:1
-1:1
1:12:1
-1:-1
0:2:1
-1:1
0:3:1
-1:1
0:7:1
-1:-1
0:10:1
-1:1
0:8:1
-1:-1
2:14:1
0:-1
3:6:1
0:-1
2:10:1
0:1
3:3:2
0:-1
0:8:2
-1:-1
0:12:1
-1:-1
0:2:1
-1:-1
0:1:1
-1:-1
1:5:1
-1:-1
2:1:1
0:-1
0:8:1
-1:-1
0:1:1
-1:-1
3:6:1
0:1
1:4:2
-1:-1
0:5:1
-1:-1
0:8:1
-1:-1
1:2:1
-1:-1
4:42:1
1:-1
2:47:1
0:1
0:29:2
-1:-1
0:39:1
-1:1
0:56:1
-1:-1
0:69:1
-1:-1
0:27:1
-1:1
0:62:1
-1:-1
3:48:1
0:-1
3:65:1
0:-1
0:64:1
-1:-1
0:37:1
-1:1
0:67:1
-1:-1
2:55:1
0:1
2:59:2
0:1
0:52:3
-1:-1
0:58:2
-1:1
0:59:2
-1:-1
0:70:1
-1:1
3:44:1
0:1
2:69:2
0:-1
2:43:2
0:0
2:54:2
0:-1
0:61:2
-1:-1
0:72:1
-1:1
0:48:1
-1:-1
2:54:1
0:-1
0:45:1
-1:1
2:45:1
0:1
0:44:2
-1:-1
0:34:1
-1:1
0:80:1
-1:1
0:41:1
-1:-1
2:53:1
0:-1
0:51:1
-1:-1
0:50:1
-1:-1
0:35:1
-1:-1
0:39:1
-1:-1
1:50:1
-1:1
2:41:1
0:-1
3:46:1
0:-1
2:58:1
0:-1
0:59:1
-1:-1
0:33:1
-1:1
2:48:1
0:-1
2:38:1
0:-1
1:36:1
-1:-1
0:55:1
-1:1
1:41:1
-1:-1
0:32:1
-1:-1
0:49:1
-1:1
0:34:1
-1:-1
3:37:1
0:-1
1:55:1
-1:-1
0:36:1
-1:-1
0:45:1
-1:1
2:39:1
0:-1
1:45:1
-1:1
0:53:1
-1:-1
1:52:1
-1:1
0:51:1
-1:1
3:40:1
0:-1
0:38:1
-1:1
0:49:1
-1:-1
3:33:1
0:1
2:45:2
0:1
1:32:3
-1:-1
0:57:2
-1:-1
0:71:1
-1:1
0:64:1
-1:1
0:71:1
-1:1
2:78:1
0:1
1:44:2
-1:-1
2:41:1
0:1
6:38:2
1:0
15:33:3
2:0
15:33:4
2:1
15:25:6
2:0
15:28:7
2:0
0:30:8
-1:0
0:28:7
-1:-1
0:22:6
-1:-1
0:21:5
-1:-1
0:4:4
-1:0
0:13:3
-1:0
2:12:2
0:-1
0:4:2
-1:-1
5:11:1
1:-1
3:25:1
0:1
0:13:2
-1:0
0:11:1
-1:-1
0:19:1
-1:1
2:14:1
0:1
6:7:2
1:-1
0:4:2
-1:-1
3:10:1
0:1
0:13:2
-1:-1
0:8:1
-1:1
2:22:1
0:1
0:4:2
-1:-1
1:7:1
-1:-1
5:2:1
1:-1
0:11:1
-1:-1
0:1:1
-1:-1
0:13:1
-1:1
2:5:1
0:1
0:5:2
-1:-1
0:19:1
-1:1
0:1:1
-1:-1
2:13:1
0:-1
3:12:1
0:1
3:11:2
0:0
0:23:2
-1:1
0:6:2
-1:-1
3:13:1
0:1
0:5:2
-1:-1
0:2:1
-1:-1
0:4:1
-1:1
0:7:1
-1:-1
1:9:1
-1:-1
0:9:1
-1:1
0:12:1
-1:-1
0:8:1
-1:1
1:8:1
-1:1
3:4:1
0:-1
0:12:1
-1:-1
0:6:1
-1:1
0:7:1
-1:1
0:4:1
-1:-1
1:6:1
-1:-1
1:1:1
-1:-1
2:1:1
0:-1
0:9:1
-1:-1
0:1:1
-1:-1
0:3:1
-1:1
0:2:1
-1:-1
0:7:1
-1:1
1:4:1
-1:-1
0:1:1
-1:-1
1:12:1
-1:-1
1:10:1
-1:1
1:10:1
-1:1
0:22:1
-1:1
0:7:1
-1:-1
0:12:1
-1:-1
0:4:1
-1:-1
0:5:1
-1:-1
0:2:1
-1:-1
2:1:1
0:-1
0:7:1
-1:-1
0:10:1
-1:-1
3:9:1
0:-1
1:11:1
-1:-1
0:4:1
-1:-1
1:8:1
-1:1
3:3:1
0:-1
0:12:1
-1:-1
1:6:1
-1:-1
0:14:1
-1:-1
0:3:1
-1:-1
1:6:1
-1:-1
2:1:1
0:-1
0:7:1
-1:-1
0:1:1
-1:-1
3:3:1
0:1
1:3:2
-1:-1
0:3:1
-1:-1
0:11:1
-1:1
1:12:1
-1:-1
1:12:1
-1:1
1:10:1
-1:-1
0:22:1
-1:1
2:9:1
0:-1
2:6:1
0:-1
0:6:1
-1:-1
0:5:1
-1:-1
1:2:1
-1:1
0:3:1
-1:-1
0:10:1
-1:-1
1:10:1
-1:-1
0:6:1
-1:1
1:13:1
-1:-1
0:4:1
-1:-1
1:7:1
-1:1
1:1:1
-1:-1
4:4:1
1:-1
0:12:1
-1:-1
0:7:1
-1:-1
0:12:1
-1:-1
0:3:1
-1:-1
1:6:1
-1:-1
0:2:1
-1:-1
0:7:1
-1:-1
0:2:1
-1:-1
2:5:1
0:-1
1:3:1
-1:-1
0:2:1
-1:-1
0:4:1
-1:1
0:2:1
-1:1
1:13:1
-1:-1
0:12:1
-1:-1
9:9:1
2:-1
2:6:1
0:1
2:22:2
0:0
0:7:2
-1:-1
0:6:1
-1:1
0:5:1
-1:-1
0:4:1
-1:-1
0:1:1
-1:-1
0:8:1
-1:-1
1:8:1
-1:-1
2:6:1
0:1
1:11:2
-1:-1
0:4:1
-1:-1
2:10:1
0:1
4:4:2
1:-1
0:11:2
-1:-1
0:4:1
-1:-1
0:17:1
-1:1
0:3:1
-1:-1
1:6:1
-1:-1
2:1:1
0:-1
0:5:1
-1:-1
0:3:1
-1:1
1:4:1
-1:1
1:3:1
-1:-1
0:2:1
-1:-1
0:9:1
-1:1
0:1:1
-1:1
0:42:1
-1:-1
2:46:1
0:1
0:32:2
-1:0
0:38:1
-1:1
2:60:1
0:1
0:68:2
-1:1
0:19:2
-1:0
0:67:1
-1:1
3:47:1
0:-1
3:66:1
0:-1
2:52:1
0:-1
0:38:1
-1:1
2:62:1
0:-1
0:64:1
-1:-1
0:64:1
-1:1
0:56:1
-1:1
0:59:1
-1:1
3:62:1
0:-1
0:68:1
-1:-1
3:43:1
0:1
2:58:2
0:-1
0:52:2
-1:-1
2:57:1
0:-1
1:64:1
-1:-1
0:62:1
-1:-1
0:54:1
-1:1
0:52:1
-1:1
0:46:1
-1:1
1:45:1
-1:-1
2:48:1
0:1
2:27:2
0:-1
1:59:2
-1:-1
1:39:1
-1:-1
2:57:1
0:-1
3:45:1
0:-1
3:59:1
0:-1
0:39:1
-1:-1
0:31:1
-1:1
2:55:1
0:1
0:33:2
-1:-1
3:42:1
0:-1
3:40:1
0:-1
0:60:1
-1:-1
0:59:1
-1:1
1:37:1
-1:1
1:43:1
-1:1
0:40:1
-1:1
0:46:1
-1:1
0:50:1
-1:1
0:42:1
-1:1
0:42:1
-1:1
0:35:1
-1:-1
0:33:1
-1:1
3:35:1
0:1
2:55:2
0:-1
3:33:2
0:0
0:39:2
-1:0
4:33:1
1:-1
0:50:1
-1:-1
2:56:1
0:-1
2:49:1
0:1
2:54:2
0:-1
0:48:2
-1:-1
0:44:1
-1:1
0:44:1
-1:1
3:38:1
0:1
2:36:2
0:-1
0:35:2
-1:1
0:68:2
-1:0
3:81:1
0:1
0:50:2
-1:0
0:70:1
-1:1
0:76:1
-1:-1
3:40:1
0:1
0:40:2
-1:-1
7:40:1
1:1
15:35:2
2:1
2:31:4
0:1
15:31:5
2:1
15:29:7
2:1
0:32:9
-1:1
0:29:9
-1:-1
0:24:8
-1:-1
0:23:7
-1:-1
0:4:6
-1:-1
0:14:5
-1:-1
2:9:4
0:0
0:4:4
-1:-1
5:12:3
1:0
0:28:4
-1:0
0:16:3
-1:0
0:12:2
-1:0
0:18:1
-1:1
2:15:1
0:1
0:11:2
-1:-1
0:2:1
-1:1
3:9:1
0:1
0:14:2
-1:-1
3:12:1
0:1
0:16:2
-1:-1
0:4:1
-1:-1
1:7:1
-1:-1
3:1:1
0:-1
5:1:1
1:-1
0:14:1
-1:-1
0:1:1
-1:-1
0:14:1
-1:1
1:6:1
-1:1
0:2:1
-1:-1
3:6:1
0:1
0:17:2
-1:1
3:14:2
0:-1
2:11:2
0:0
3:12:2
0:0
0:22:2
-1:1
0:5:2
-1:-1
3:11:1
0:1
0:5:2
-1:-1
0:4:1
-1:1
0:3:1
-1:1
0:7:1
-1:-1
1:9:1
-1:-1
0:7:1
-1:1
1:13:1
-1:-1
1:6:1
-1:-1
1:7:1
-1:1
3:4:1
0:-1
0:9:1
-1:-1
0:7:1
-1:-1
0:14:1
-1:1
0:2:1
-1:-1
0:5:1
-1:-1
1:2:1
-1:-1
2:1:1
0:-1
0:5:1
-1:-1
0:1:1
-1:-1
2:4:1
0:1
0:4:2
-1:-1
1:5:1
-1:-1
0:1:1
-1:-1
1:11:1
-1:-1
1:10:1
-1:-1
1:10:1
-1:-1
6:17:1
1:-1
0:6:1
-1:-1
0:2:1
-1:-1
3:13:1
0:1
0:6:2
-1:-1
0:2:1
-1:-1
0:2:1
-1:1
0:7:1
-1:-1
1:8:1
-1:-1
0:6:1
-1:1
0:12:1
-1:-1
1:7:1
-1:-1
1:7:1
-1:1
3:3:1
0:-1
0:8:1
-1:-1
2:6:1
0:-1
0:9:1
-1:-1
0:1:1
-1:-1
1:4:1
-1:-1
2:1:1
0:-1
0:3:1
-1:-1
0:1:1
-1:-1
1:7:1
-1:-1
1:4:1
-1:1
0:2:1
-1:-1
2:10:1
0:-1
0:5:1
-1:-1
1:11:1
-1:-1
2:11:1
0:1
2:11:2
0:1
2:20:3
0:1
0:7:4
-1:-1
0:11:3
-1:-1
0:5:2
-1:-1
0:4:1
-1:-1
0:2:1
-1:1
0:5:1
-1:-1
1:6:1
-1:-1
2:7:1
0:1
1:11:2
-1:-1
0:5:1
-1:-1
0:9:1
-1:1
3:3:1
0:-1
0:9:1
-1:-1
2:15:1
0:-1
0:5:1
-1:-1
1:5:1
-1:-1
2:1:1
0:-1
0:4:1
-1:-1
0:2:1
-1:1
2:5:1
0:-1
0:4:1
-1:-1
0:8:1
-1:-1
0:6:1
-1:-1
2:23:1
0:-1
2:47:1
0:1
2:28:2
0:0
0:45:2
-1:-1
1:52:1
-1:-1
2:77:1
0:1
0:22:2
-1:-1
0:50:1
-1:1
0:48:1
-1:1
0:53:1
-1:1
0:73:1
-1:1
0:40:1
-1:-1
1:58:1
-1:1
2:71:1
0:1
0:55:2
-1:-1
0:62:1
-1:1
0:58:1
-1:-1
0:70:1
-1:1
1:76:1
-1:1
0:44:1
-1:-1
0:60:1
-1:-1
0:47:1
-1:1
1:53:1
-1:-1
0:67:1
-1:-1
0:78:1
-1:-1
0:42:1
-1:-1
1:59:1
-1:1
2:38:1
0:-1
0:55:1
-1:-1
2:52:1
0:-1
0:30:1
-1:1
2:50:1
0:1
0:53:2
-1:-1
2:54:1
0:1
2:48:2
0:-1
3:64:2
0:0
0:42:2
-1:-1
0:29:1
-1:1
0:46:1
-1:1
0:44:1
-1:1
0:51:1
-1:-1
2:42:1
0:-1
1:65:1
-1:-1
0:51:1
-1:-1
2:32:1
0:1
2:47:2
0:-1
0:37:2
-1:-1
1:43:1
-1:1
2:57:1
0:-1
2:39:1
0:-1
0:37:1
-1:-1
2:31:1
0:1
0:34:2
-1:-1
0:38:1
-1:1
2:53:1
0:1
0:32:2
-1:-1
2:55:1
0:1
0:41:2
-1:-1
0:57:1
-1:-1
1:53:1
-1:-1
1:48:1
-1:1
2:51:1
0:-1
1:34:1
-1:1
3:45:1
0:-1
2:45:1
0:-1
0:40:1
-1:-1
0:35:1
-1:1
0:39:1
-1:1
4:74:1
1:1
0:81:2
-1:-1
1:65:1
-1:1
3:88:1
0:1
2:59:2
0:0
0:36:2
-1:-1
0:46:1
-1:1
2:38:1
0:1
15:39:2
2:1
15:28:4
2:1
4:33:6
1:0
15:28:7
2:0
5:22:8
1:0
0:36:9
-1:0
0:8:8
-1:-1
0:21:7
-1:0
0:17:6
-1:-1
2:10:5
0:0
0:4:5
-1:-1
5:11:4
1:-1
3:23:4
0:0
0:16:4
-1:0
0:13:3
-1:-1
0:19:2
-1:0
2:14:1
0:1
0:11:2
-1:-1
0:2:1
-1:1
3:10:1
0:1
0:10:2
-1:-1
0:8:1
-1:1
0:23:1
-1:1
0:3:1
-1:-1
0:5:1
-1:-1
3:3:1
0:1
5:1:2
1:-1
0:13:2
-1:0
0:1:1
-1:-1
0:12:1
-1:1
1:5:1
-1:-1
0:1:1
-1:-1
15:14:1
2:-1
0:6:1
-1:1
1:12:1
-1:-1
1:9:1
-1:1
1:10:1
-1:1
2:21:1
0:1
0:2:2
-1:-1
3:9:1
0:1
0:5:2
-1:-1
0:2:1
-1:-1
0:2:1
-1:-1
0:7:1
-1:-1
1:8:1
-1:-1
2:9:1
0:1
1:11:2
-1:-1
0:4:1
-1:-1
0:5:1
-1:-1
2:2:1
0:-1
0:12:1
-1:-1
0:6:1
-1:-1
0:15:1
-1:1
0:2:1
-1:-1
1:5:1
-1:-1
2:1:1
0:-1
0:6:1
-1:-1
2:4:1
0:1
0:4:2
-1:-1
0:4:1
-1:1
0:4:1
-1:1
1:10:1
-1:-1
1:8:1
-1:1
1:9:1
-1:1
2:21:1
0:1
0:7:2
-1:-1
3:12:1
0:1
0:4:2
-1:-1
0:2:1
-1:-1
0:1:1
-1:-1
0:6:1
-1:-1
1:9:1
-1:-1
2:8:1
0:1
1:11:2
-1:-1
0:4:1
-1:-1
1:6:1
-1:-1
2:3:1
0:-1
0:11:1
-1:-1
6:8:1
1:-1
0:3:1
-1:-1
2:11:1
0:1
0:5:2
-1:-1
0:1:1
-1:-1
1:7:1
-1:-1
2:2:1
0:-1
0:8:1
-1:-1
0:1:1
-1:-1
0:4:1
-1:1
0:3:1
-1:1
0:4:1
-1:1
0:7:1
-1:1
0:1:1
-1:-1
2:10:1
0:1
2:14:2
0:0
0:12:2
-1:0
9:9:1
2:1
0:19:3
-1:-1
0:3:2
-1:-1
3:14:1
0:1
0:7:2
-1:-1
0:2:1
-1:-1
0:2:1
-1:1
0:8:1
-1:-1
1:12:1
-1:-1
2:8:1
0:1
1:13:2
-1:-1
2:6:1
0:-1
1:8:1
-1:1
3:3:1
0:-1
0:9:1
-1:-1
0:8:1
-1:-1
0:13:1
-1:1
0:3:1
-1:-1
0:1:1
-1:-1
1:5:1
-1:-1
2:1:1
0:-1
0:5:1
-1:-1
0:1:1
-1:-1
2:9:1
0:-1
1:3:1
-1:1
0:1:1
-1:-1
3:9:1
0:1
0:11:2
-1:0
2:12:1
0:1
2:12:2
0:1
2:13:3
0:1
0:23:4
-1:1
2:10:4
0:-1
2:7:4
0:-1
0:10:4
-1:-1
0:6:3
-1:-1
0:2:2
-1:-1
0:2:1
-1:1
0:10:1
-1:-1
1:9:1
-1:-1
2:7:1
0:1
1:12:2
-1:-1
1:5:1
-1:-1
1:8:1
-1:1
3:4:1
0:-1
0:14:1
-1:-1
1:5:1
-1:1
2:7:1
0:-1
0:5:1
-1:-1
0:1:1
-1:-1
1:5:1
-1:-1
0:2:1
-1:-1
0:4:1
-1:-1
0:1:1
-1:-1
1:3:1
-1:1
1:5:1
-1:1
0:2:1
-1:-1
0:3:1
-1:1
0:4:1
-1:-1
5:45:1
1:-1
2:35:1
0:1
2:19:2
0:-1
3:35:2
0:0
2:53:2
0:0
0:83:2
-1:-1
0:21:1
-1:-1
0:53:1
-1:1
2:49:1
0:-1
2:55:1
0:-1
0:65:1
-1:-1
2:43:1
0:-1
2:42:1
0:-1
2:69:1
0:-1
2:55:1
0:-1
0:59:1
-1:-1
0:63:1
-1:1
1:57:1
-1:1
0:65:1
-1:-1
0:56:1
-1:1
2:51:1
0:1
0:61:2
-1:-1
1:41:1
-1:1
0:61:1
-1:-1
2:52:1
0:-1
0:73:1
-1:-1
2:37:1
0:1
2:50:2
0:-1
1:39:2
-1:0
2:49:1
0:1
2:45:2
0:-1
0:28:2
-1:-1
0:69:1
-1:1
0:45:1
-1:1
2:52:1
0:-1
1:52:1
-1:-1
0:54:1
-1:1
1:44:1
-1:-1
0:29:1
-1:-1
2:52:1
0:1
0:40:2
-1:-1
0:42:1
-1:1
2:39:1
0:1
0:61:2
-1:-1
0:51:1
-1:1
0:31:1
-1:1
1:46:1
-1:-1
2:37:1
0:-1
0:42:1
-1:-1
0:56:1
-1:1
1:39:1
-1:1
0:34:1
-1:1
0:36:1
-1:1
2:36:1
0:1
0:28:2
-1:-1
4:57:1
1:1
0:34:2
-1:-1
0:42:1
-1:-1
0:28:1
-1:-1
0:55:1
-1:1
2:57:1
0:1
4:57:2
1:1
3:50:3
0:-1
2:45:3
0:-1
0:34:3
-1:0
0:49:2
-1:-1
0:34:1
-1:1
2:40:1
0:1
0:38:2
-1:1
0:69:2
-1:0
1:73:1
-1:1
0:76:1
-1:-1
0:72:1
-1:1
2:68:1
0:-1
0:33:1
-1:-1
1:46:1
-1:1
12:41:1
2:1
15:32:3
2:1
0:28:5
-1:1
15:33:5
2:1
15:31:7
2:0
0:29:8
-1:1
0:29:8
-1:-1
0:24:7
-1:-1
0:22:6
-1:-1
0:4:5
-1:-1
2:11:4
0:0
2:15:4
0:-1
0:4:4
-1:-1
5:10:3
1:0
0:29:4
-1:0
0:13:3
-1:0
3:13:2
0:1
0:17:3
-1:0
2:12:2
0:-1
4:8:2
1:-1
0:5:2
-1:0
3:9:1
0:1
0:13:2
-1:-1
0:5:1
-1:1
0:21:1
-1:1
0:3:1
-1:-1
2:6:1
0:-1
5:3:1
1:-1
0:12:1
-1:-1
0:1:1
-1:-1
0:13:1
-1:1
2:7:1
0:1
0:4:2
-1:-1
0:18:1
-1:1
1:12:1
-1:-1
1:10:1
-1:1
1:11:1
-1:-1
0:23:1
-1:1
0:4:1
-1:-1
3:11:1
0:1
0:6:2
-1:-1
0:1:1
-1:-1
0:2:1
-1:1
0:12:1
-1:-1
1:8:1
-1:-1
1:10:1
-1:1
1:12:1
-1:-1
0:6:1
-1:-1
0:7:1
-1:-1
1:2:1
-1:1
4:4:1
1:-1
0:8:1
-1:-1
0:12:1
-1:-1
0:3:1
-1:-1
1:4:1
-1:-1
0:1:1
-1:-1
0:3:1
-1:-1
0:1:1
-1:-1
0:4:1
-1:1
0:8:1
-1:1
0:7:1
-1:-1
0:1:1
-1:-1
2:13:1
0:-1
2:12:1
0:1
2:11:2
0:0
0:19:2
-1:0
0:9:1
-1:-1
0:15:1
-1:-1
1:6:1
-1:-1
0:3:1
-1:-1
0:2:1
-1:-1
0:4:1
-1:-1
0:11:1
-1:-1
1:10:1
-1:-1
1:8:1
-1:1
1:12:1
-1:-1
0:5:1
-1:-1
1:7:1
-1:1
1:1:1
-1:-1
4:5:1
1:-1
0:12:1
-1:-1
0:4:1
-1:-1
2:10:1
0:1
0:6:2
-1:-1
0:1:1
-1:-1
1:5:1
-1:-1
2:1:1
0:-1
0:5:1
-1:-1
0:1:1
-1:-1
0:6:1
-1:1
0:4:1
-1:1
0:11:1
-1:1
2:12:1
0:-1
0:10:1
-1:-1
9:9:1
2:1
3:5:3
0:0
0:22:3
-1:1
0:5:3
-1:-1
3:12:2
0:1
0:5:3
-1:-1
0:1:2
-1:-1
0:3:1
-1:1
0:6:1
-1:-1
0:10:1
-1:-1
2:6:1
0:-1
1:11:1
-1:-1
0:6:1
-1:-1
1:8:1
-1:1
4:4:1
1:-1
0:11:1
-1:-1
1:5:1
-1:-1
0:14:1
-1:-1
0:3:1
-1:-1
0:1:1
-1:-1
1:6:1
-1:-1
0:2:1
-1:-1
0:5:1
-1:-1
0:1:1
-1:-1
0:4:1
-1:1
1:3:1
-1:-1
0:3:1
-1:-1
1:2:1
-1:-1
0:2:1
-1:-1
4:26:1
1:-1
0:41:1
-1:-1
0:24:1
-1:-1
0:30:1
-1:-1
0:42:1
-1:1
0:70:1
-1:-1
2:51:1
0:1
0:26:2
-1:-1
1:66:1
-1:1
0:47:1
-1:-1
0:63:1
-1:1
0:57:1
-1:1
0:37:1
-1:-1
0:79:1
-1:1
2:51:1
0:1
1:57:2
-1:-1
0:52:1
-1:-1
1:60:1
-1:-1
0:63:1
-1:-1
0:64:1
-1:-1
0:48:1
-1:1
0:67:1
-1:-1
0:35:1
-1:-1
0:65:1
-1:1
0:57:1
-1:-1
0:76:1
-1:1
3:40:1
0:1
0:51:2
-1:-1
0:36:1
-1:1
0:49:1
-1:1
0:48:1
-1:1
0:44:1
-1:-1
0:65:1
-1:-1
2:38:1
0:-1
2:49:1
0:-1
3:61:1
0:-1
0:49:1
-1:-1
0:38:1
-1:1
2:49:1
0:-1
0:37:1
-1:-1
0:43:1
-1:-1
0:44:1
-1:1
0:52:1
-1:-1
0:60:1
-1:1
0:34:1
-1:-1
2:34:1
0:-1
1:40:1
-1:-1
2:37:1
0:-1
0:53:1
-1:1
0:51:1
-1:1
0:39:1
-1:-1
3:47:1
0:1
0:34:2
-1:0
1:30:1
-1:-1
2:51:1
0:1
3:35:2
0:-1
4:45:2
1:-1
0:33:2
-1:-1
0:42:1
-1:1
3:60:1
0:1
2:49:2
0:-1
0:58:2
-1:0
3:49:1
0:-1
4:35:1
1:-1
4:49:1
1:-1
0:34:1
-1:-1
0:40:1
-1:-1
0:41:1
-1:1
3:45:1
0:1
3:68:2
0:0
0:76:2
-1:-1
0:72:1
-1:1
0:80:1
-1:1
2:51:1
0:1
0:34:2
-1:-1
0:47:1
-1:1
4:33:1
1:-1
15:37:1
2:1
15:23:3
2:1
15:25:5
2:1
15:29:7
2:-1
2:26:7
0:1
1:37:8
-1:0
0:8:7
-1:-1
0:22:6
-1:0
0:14:5
-1:-1
2:12:4
0:0
0:3:4
-1:-1
5:12:3
1:0
0:29:4
-1:0
0:17:3
-1:0
0:12:2
-1:0
0:17:1
-1:1
2:12:1
0:-1
0:11:1
-1:-1
0:2:1
-1:1
3:11:1
0:1
0:13:2
-1:-1
0:8:1
-1:1
0:19:1
-1:1
0:4:1
-1:-1
0:5:1
-1:-1
3:3:1
0:1
5:1:2
1:-1
0:11:2
-1:0
0:1:1
-1:-1
0:14:1
-1:1
1:5:1
-1:-1
0:3:1
-1:-1
15:19:1
2:1
0:3:3
-1:-1
1:14:2
-1:-1
2:12:1
0:-1
2:13:1
0:1
0:24:2
-1:1
0:7:2
-1:-1
3:11:1
0:1
0:5:2
-1:-1
0:3:1
-1:1
0:2:1
-1:-1
0:9:1
-1:-1
1:9:1
-1:-1
1:9:1
-1:1
1:13:1
-1:-1
0:6:1
-1:-1
1:8:1
-1:1
4:5:1
1:-1
0:11:1
-1:-1
0:7:1
-1:-1
0:8:1
-1:-1
0:4:1
-1:-1
0:5:1
-1:-1
1:1:1
-1:-1
2:1:1
0:-1
0:3:1
-1:-1
0:1:1
-1:-1
1:6:1
-1:-1
1:7:1
-1:1
0:3:1
-1:-1
1:3:1
-1:1
0:4:1
-1:-1
3:14:1
0:-1
3:12:1
0:1
3:12:2
0:0
2:20:2
0:0
0:3:2
-1:-1
3:9:1
0:1
0:5:2
-1:-1
0:2:1
-1:-1
0:5:1
-1:-1
0:9:1
-1:-1
1:8:1
-1:-1
0:5:1
-1:1
1:15:1
-1:-1
0:8:1
-1:-1
0:8:1
-1:1
4:6:1
1:-1
0:11:1
-1:-1
0:8:1
-1:-1
0:10:1
-1:-1
0:3:1
-1:-1
1:5:1
-1:-1
0:1:1
-1:-1
0:3:1
-1:-1
1:7:1
-1:1
1:4:1
-1:-1
0:1:1
-1:-1
0:10:1
-1:-1
2:15:1
0:-1
3:15:1
0:1
3:13:2
0:0
1:20:2
-1:1
0:6:2
-1:-1
0:2:1
-1:1
3:11:1
0:1
0:5:2
-1:-1
3:5:1
0:-1
0:4:1
-1:-1
0:7:1
-1:-1
0:8:1
-1:-1
0:6:1
-1:-1
1:13:1
-1:-1
0:6:1
-1:-1
1:7:1
-1:1
4:5:1
1:-1
0:12:1
-1:-1
3:3:1
0:-1
2:7:1
0:-1
0:5:1
-1:-1
0:1:1
-1:-1
1:5:1
-1:-1
0:1:1
-1:-1
0:4:1
-1:-1
2:4:1
0:1
1:3:2
-1:-1
0:4:1
-1:-1
2:5:1
0:1
0:5:2
-1:-1
2:8:1
0:1
2:8:2
0:0
3:10:2
0:0
0:17:2
-1:0
0:7:1
-1:-1
0:6:1
-1:1
0:4:1
-1:-1
0:4:1
-1:-1
0:1:1
-1:-1
0:3:1
-1:1
0:7:1
-1:-1
0:9:1
-1:-1
0:6:1
-1:-1
1:14:1
-1:-1
1:6:1
-1:-1
1:6:1
-1:-1
4:5:1
1:-1
0:10:1
-1:-1
1:7:1
-1:-1
0:11:1
-1:-1
0:3:1
-1:-1
1:5:1
-1:-1
0:2:1
-1:-1
0:5:1
-1:-1
0:2:1
-1:-1
0:1:1
-1:-1
0:4:1
-1:1
0:5:1
-1:1
0:5:1
-1:-1
2:4:1
0:1
7:46:2
1:0
2:35:3
0:-1
0:24:3
-1:-1
3:34:2
0:0
2:62:2
0:1
4:69:3
1:0
0:18:4
-1:-1
0:57:3
-1:0
0:50:2
-1:1
0:53:2
-1:0
0:66:1
-1:1
0:46:1
-1:1
0:58:1
-1:1
0:64:1
-1:-1
0:61:1
-1:1
0:56:1
-1:-1
0:55:1
-1:1
0:63:1
-1:-1
2:77:1
0:-1
1:44:1
-1:-1
0:58:1
-1:1
1:47:1
-1:1
2:52:1
0:-1
0:68:1
-1:-1
0:66:1
-1:-1
0:49:1
-1:1
0:49:1
-1:-1
0:42:1
-1:1
0:46:1
-1:-1
0:43:1
-1:1
0:38:1
-1:1
1:43:1
-1:1
0:63:1
-1:-1
0:49:1
-1:-1
0:43:1
-1:1
3:61:1
0:1
2:46:2
0:-1
0:40:2
-1:-1
0:52:1
-1:-1
0:40:1
-1:1
0:39:1
-1:1
1:43:1
-1:1
1:50:1
-1:1
0:67:1
-1:-1
0:34:1
-1:-1
2:35:1
0:-1
2:47:1
0:-1
0:35:1
-1:-1
0:59:1
-1:1
1:42:1
-1:-1
2:43:1
0:-1
0:47:1
-1:1
0:30:1
-1:1
2:31:1
0:-1
0:43:1
-1:1
0:38:1
-1:1
4:45:1
1:-1
2:37:1
0:-1
0:42:1
-1:-1
0:49:1
-1:1
1:52:1
-1:-1
4:60:1
1:1
4:48:2
1:-1
3:36:2
0:-1
3:45:2
0:-1
0:42:2
-1:-1
0:41:1
-1:-1
0:34:1
-1:1
2:53:1
0:1
1:67:2
-1:-1
2:78:1
0:1
0:61:2
-1:-1
2:89:1
0:-1
2:57:1
0:-1
0:31:1
-1:-1
0:46:1
-1:1
15:31:1
2:1
15:41:3
2:1
10:19:5
2:1
15:31:7
2:0
15:23:8
2:-1
5:24:8
1:1
0:32:9
-1:-1
0:20:8
-1:-1
0:24:7
-1:-1
0:1:6
-1:-1
3:10:5
0:-1
2:13:5
0:-1
0:4:5
-1:-1
5:12:4
1:0
0:28:5
-1:0
0:16:4
-1:0
0:12:3
-1:-1
0:18:2
-1:0
2:11:1
0:-1
0:11:1
-1:-1
0:2:1
-1:1
3:10:1
0:1
0:11:2
-1:-1
0:8:1
-1:1
0:16:1
-1:1
0:3:1
-1:-1
0:5:1
-1:-1
3:4:1
0:-1
5:1:1
1:-1
0:12:1
-1:-1
0:3:1
-1:1
0:14:1
-1:1
0:7:1
-1:1
1:5:1
-1:-1
0:24:1
-1:-1
3:16:1
0:-1
3:11:1
0:-1
2:13:1
0:-1
11:9:1
2:-1
0:16:1
-1:1
0:5:1
-1:1
3:8:1
0:1
0:11:2
-1:-1
0:3:1
-1:1
0:3:1
-1:1
0:8:1
-1:-1
1:9:1
-1:-1
0:9:1
-1:1
0:13:1
-1:-1
1:6:1
-1:-1
1:6:1
-1:1
1:1:1
-1:-1
4:5:1
1:-1
0:9:1
-1:-1
0:5:1
-1:-1
2:11:1
0:1
0:5:2
-1:-1
0:5:1
-1:-1
1:1:1
-1:-1
0:0:1
-1:-1
1:6:1
-1:-1
0:0:1
-1:-1
0:1:1
-1:-1
1:5:1
-1:1
2:4:1
0:-1
0:5:1
-1:-1
0:5:1
-1:1
0:5:1
-1:-1
2:12:1
0:-1
2:9:1
0:-1
2:11:1
0:-1
0:15:1
-1:-1
0:8:1
-1:-1
0:1:1
-1:-1
3:11:1
0:1
0:6:2
-1:-1
0:3:1
-1:-1
0:2:1
-1:1
0:10:1
-1:-1
1:9:1
-1:-1
1:10:1
-1:1
1:13:1
-1:-1
1:5:1
-1:-1
0:4:1
-1:1
4:4:1
1:-1
0:10:1
-1:-1
3:5:1
0:-1
0:11:1
-1:-1
0:3:1
-1:-1
1:4:1
-1:-1
2:1:1
0:-1
0:3:1
-1:-1
0:1:1
-1:-1
0:5:1
-1:-1
0:3:1
-1:1
6:9:1
1:-1
0:4:1
-1:1
1:10:1
-1:-1
1:8:1
-1:-1
1:9:1
-1:1
0:18:1
-1:1
1:4:1
-1:-1
0:7:1
-1:-1
0:5:1
-1:-1
0:5:1
-1:-1
0:1:1
-1:-1
0:1:1
-1:-1
0:9:1
-1:-1
1:8:1
-1:-1
0:8:1
-1:1
1:12:1
-1:-1
0:4:1
-1:-1
1:7:1
-1:1
4:4:1
1:-1
0:10:1
-1:-1
0:6:1
-1:-1
0:8:1
-1:-1
0:5:1
-1:-1
0:4:1
-1:-1
1:1:1
-1:-1
0:5:1
-1:-1
0:4:1
-1:1
0:4:1
-1:-1
1:5:1
-1:-1
0:5:1
-1:-1
6:21:1
1:-1
0:45:1
-1:-1
2:28:1
0:1
0:25:2
-1:-1
0:43:1
-1:1
2:59:1
0:1
0:54:2
-1:0
0:25:1
-1:-1
2:64:1
0:-1
2:50:1
0:-1
0:63:1
-1:-1
0:60:1
-1:-1
2:38:1
0:1
0:70:2
-1:-1
0:62:1
-1:1
0:58:1
-1:1
0:54:1
-1:-1
1:64:1
-1:-1
1:70:1
-1:-1
2:59:1
0:1
0:49:2
-1:-1
1:66:1
-1:-1
0:37:1
-1:-1
2:61:1
0:1
0:53:2
-1:-1
2:65:1
0:-1
0:42:1
-1:-1
2:54:1
0:-1
0:38:1
-1:-1
2:47:1
0:1
0:46:2
-1:-1
0:30:1
-1:1
0:71:1
-1:-1
0:39:1
-1:-1
0:50:1
-1:-1
0:62:1
-1:1
1:50:1
-1:1
0:42:1
-1:-1
0:31:1
-1:1
0:56:1
-1:-1
1:40:1
-1:-1
0:39:1
-1:-1
2:47:1
0:1
0:56:2
-1:-1
0:46:1
-1:-1
2:35:1
0:-1
2:46:1
0:-1
4:45:1
1:-1
2:40:1
0:-1
2:54:1
0:-1
2:39:1
0:-1
0:39:1
-1:-1
2:44:1
0:1
0:26:2
-1:-1
2:50:1
0:-1
0:40:1
-1:-1
0:29:1
-1:1
2:42:1
0:1
0:39:2
-1:0
1:49:1
-1:1
3:46:1
0:-1
4:51:1
1:1
3:47:2
0:-1
0:46:2
-1:-1
0:41:1
-1:1
0:44:1
-1:1
0:34:1
-1:1
0:40:1
-1:1
0:36:1
-1:1
2:74:1
0:1
0:76:2
-1:-1
0:64:1
-1:1
2:74:1
0:1
0:73:2
-1:-1
0:36:1
-1:1
2:45:1
0:-1
14:37:1
2:-1
15:31:1
2:-1
4:26:1
1:1
15:31:2
2:0
15:26:3
2:1
0:21:5
-1:1
0:19:5
-1:-1
0:36:4
-1:0
0:23:3
-1:-1
0:3:2
-1:-1
0:11:1
-1:-1
2:14:1
0:-1
0:4:1
-1:-1
5:11:1
1:-1
0:30:1
-1:1
0:14:1
-1:1
0:9:1
-1:1
1:20:1
-1:1
2:14:1
0:1
0:10:2
-1:-1
0:2:1
-1:1
0:9:1
-1:1
0:6:1
-1:-1
0:12:1
-1:-1
0:18:1
-1:1
0:1:1
-1:-1
0:4:1
-1:-1
0:5:1
-1:-1
3:3:1
0:1
5:2:2
1:-1
0:9:2
-1:0
0:1:1
-1:-1
0:15:1
-1:1
1:6:1
-1:-1
4:7:1
1:-1
0:10:1
-1:1
0:19:1
-1:-1
0:1:1
-1:-1
1:12:1
-1:-1
1:10:1
-1:1
1:10:1
-1:-1
0:21:1
-1:1
0:5:1
-1:-1
3:13:1
0:1
0:3:2
-1:-1
1:4:1
-1:-1
0:3:1
-1:-1
0:10:1
-1:-1
1:8:1
-1:-1
0:8:1
-1:1
1:13:1
-1:-1
0:4:1
-1:-1
1:7:1
-1:1
3:3:1
0:-1
0:11:1
-1:-1
0:8:1
-1:-1
0:11:1
-1:1
0:4:1
-1:-1
0:5:1
-1:-1
1:1:1
-1:-1
2:1:1
0:-1
0:2:1
-1:-1
0:1:1
-1:-1
0:8:1
-1:-1
0:5:1
-1:1
0:5:1
-1:1
0:2:1
-1:-1
2:14:1
0:-1
13:11:1
2:-1
7:8:1
1:-1
4:11:1
1:1
0:20:2
-1:1
0:6:2
-1:0
0:2:1
-1:1
3:9:1
0:1
0:4:2
-1:-1
2:3:1
0:1
3:5:2
0:-1
0:7:2
-1:-1
0:10:1
-1:-1
0:9:1
-1:-1
2:4:1
0:-1
1:11:1
-1:-1
0:6:1
-1:-1
0:5:1
-1:-1
4:5:1
1:1
0:9:2
-1:-1
0:7:1
-1:-1
2:10:1
0:1
0:5:2
-1:-1
0:1:1
-1:-1
1:5:1
-1:-1
2:1:1
0:-1
0:3:1
-1:-1
0:1:1
-1:-1
0:4:1
-1:1
1:4:1
-1:1
0:2:1
-1:-1
6:10:1
1:1
0:5:2
-1:0
2:11:1
0:-1
3:11:1
0:1
3:11:2
0:1
0:19:3
-1:0
0:5:2
-1:-1
3:10:1
0:1
0:5:2
-1:-1
0:2:1
-1:-1
0:3:1
-1:1
1:8:1
-1:-1
0:7:1
-1:-1
0:7:1
-1:-1
1:13:1
-1:-1
0:6:1
-1:-1
1:7:1
-1:1
4:5:1
1:-1
0:10:1
-1:-1
3:3:1
0:-1
0:10:1
-1:-1
0:3:1
-1:-1
1:5:1
-1:-1
2:1:1
0:-1
0:3:1
-1:-1
0:1:1
-1:-1
0:4:1
-1:1
1:4:1
-1:1
0:3:1
-1:-1
0:3:1
-1:-1
1:12:1
-1:-1
1:10:1
-1:1
1:11:1
-1:1
0:18:1
-1:1
0:4:1
-1:-1
0:8:1
-1:1
0:4:1
-1:-1
1:5:1
-1:-1
1:1:1
-1:-1
0:3:1
-1:-1
0:10:1
-1:-1
1:7:1
-1:-1
1:7:1
-1:1
1:13:1
-1:-1
0:7:1
-1:-1
0:5:1
-1:-1
4:4:1
1:-1
0:11:1
-1:-1
1:15:1
-1:1
1:2:1
-1:-1
0:2:1
-1:-1
1:5:1
-1:-1
2:1:1
0:-1
0:5:1
-1:-1
0:2:1
-1:-1
1:4:1
-1:1
0:7:1
-1:1
0:3:1
-1:-1
0:6:1
-1:1
0:1:1
-1:-1
7:40:1
1:-1
2:34:1
0:1
1:30:2
-1:-1
3:34:1
0:-1
0:61:1
-1:1
0:65:1
-1:1
0:18:1
-1:1
0:56:1
-1:1
0:57:1
-1:1
1:58:1
-1:-1
0:59:1
-1:-1
0:44:1
-1:1
0:57:1
-1:1
0:68:1
-1:-1
0:62:1
-1:-1
0:54:1
-1:1
1:49:1
-1:1
0:66:1
-1:-1
0:82:1
-1:1
2:45:1
0:-1
0:51:1
-1:-1
0:44:1
-1:1
0:49:1
-1:1
2:62:1
0:-1
0:41:1
-1:-1
2:72:1
0:-1
0:42:1
-1:-1
0:46:1
-1:1
0:40:1
-1:1
2:34:1
0:1
0:50:2
-1:0
1:39:1
-1:-1
1:69:1
-1:-1
0:27:1
-1:-1
0:51:1
-1:1
2:56:1
0:1
0:56:2
-1:-1
0:41:1
-1:-1
0:35:1
-1:1
0:51:1
-1:-1
2:36:1
0:-1
1:40:1
-1:-1
0:41:1
-1:-1
0:61:1
-1:1
0:52:1
-1:1
0:33:1
-1:1
0:45:1
-1:1
2:42:1
0:-1
3:33:1
0:-1
2:56:1
0:-1
0:45:1
-1:-1
0:34:1
-1:1
0:38:1
-1:1
4:27:1
1:-1
0:39:1
-1:-1
3:48:1
0:1
0:28:2
-1:-1
3:54:1
0:1
0:26:2
-1:-1
0:44:1
-1:1
2:53:1
0:1
2:50:2
0:-1
4:58:2
1:-1
4:47:2
1:-1
0:32:2
-1:-1
0:45:1
-1:1
2:39:1
0:-1
2:39:1
0:1
0:32:2
-1:0
2:39:1
0:-1
4:70:1
1:-1
0:79:1
-1:-1
0:70:1
-1:1
0:89:1
-1:1
0:56:1
-1:1
0:31:1
-1:1
3:40:1
0:1
11:38:2
2:-1
15:35:2
2:-1
12:31:2
2:1
15:28:4
2:0
15:27:5
2:1
0:27:7
-1:1
0:29:7
-1:-1
0:19:6
-1:-1
0:20:5
-1:-1
0:3:4
-1:0
1:14:3
-1:-1
2:9:2
0:-1
0:4:2
-1:-1
5:9:1
1:-1
0:23:1
-1:-1
0:22:1
-1:1
0:12:1
-1:-1
0:17:1
-1:1
2:12:1
0:-1
0:11:1
-1:-1
0:3:1
-1:1
2:9:1
0:1
2:10:2
0:-1
2:11:2
0:-1
2:12:2
0:-1
0:4:2
-1:-1
0:2:1
-1:-1
1:8:1
-1:-1
2:2:1
0:-1
4:0:1
1:-1
0:13:1
-1:-1
0:1:1
-1:-1
0:17:1
-1:1
1:5:1
-1:1
0:4:1
-1:-1
15:18:1
2:1
0:6:3
-1:-1
0:1:2
-1:-1
3:16:1
0:-1
1:13:1
-1:-1
11:10:1
2:-1
5:8:1
1:1
0:22:2
-1:1
0:3:2
-1:-1
3:6:1
0:1
0:6:2
-1:-1
2:3:1
0:1
0:4:2
-1:-1
0:12:1
-1:-1
1:8:1
-1:-1
1:7:1
-1:1
1:14:1
-1:-1
1:6:1
-1:-1
1:6:1
-1:1
1:1:1
-1:-1
5:6:1
1:-1
0:10:1
-1:-1
0:3:1
-1:-1
0:13:1
-1:1
0:2:1
-1:-1
0:5:1
-1:-1
1:1:1
-1:-1
2:1:1
0:-1
0:3:1
-1:-1
0:1:1
-1:-1
0:6:1
-1:1
0:3:1
-1:-1
0:5:1
-1:1
0:9:1
-1:-1
0:2:1
-1:-1
4:13:1
1:1
3:13:2
0:1
4:13:3
1:0
0:19:4
-1:1
0:8:4
-1:0
0:11:3
-1:-1
0:6:2
-1:-1
1:3:1
-1:-1
0:1:1
-1:-1
0:4:1
-1:1
0:9:1
-1:1
1:8:1
-1:-1
1:7:1
-1:1
1:13:1
-1:-1
0:7:1
-1:-1
1:7:1
-1:1
3:4:1
0:-1
0:12:1
-1:-1
1:5:1
-1:-1
0:8:1
-1:-1
0:5:1
-1:-1
0:4:1
-1:-1
1:1:1
-1:-1
0:4:1
-1:-1
0:2:1
-1:-1
0:3:1
-1:1
1:3:1
-1:-1
0:2:1
-1:-1
1:3:1
-1:1
0:5:1
-1:-1
6:9:1
1:-1
8:9:1
2:-1
3:7:1
0:1
4:11:2
1:0
6:17:3
1:1
0:7:4
-1:-1
0:3:3
-1:-1
3:11:2
0:1
0:4:3
-1:-1
1:2:2
-1:-1
0:4:1
-1:-1
0:7:1
-1:-1
1:7:1
-1:-1
0:6:1
-1:1
0:12:1
-1:-1
0:7:1
-1:1
1:7:1
-1:1
3:4:1
0:-1
0:10:1
-1:-1
0:6:1
-1:-1
0:12:1
-1:1
0:3:1
-1:-1
1:5:1
-1:-1
2:1:1
0:-1
0:4:1
-1:-1
0:1:1
-1:-1
1:3:1
-1:1
0:4:1
-1:-1
0:5:1
-1:-1
0:6:1
-1:-1
2:18:1
0:-1
2:44:1
0:-1
0:25:1
-1:-1
0:40:1
-1:-1
2:56:1
0:-1
4:81:1
1:-1
0:18:1
-1:-1
0:61:1
-1:1
0:50:1
-1:1
1:57:1
-1:-1
1:63:1
-1:1
1:36:1
-1:-1
0:59:1
-1:-1
0:63:1
-1:1
3:56:1
0:-1
1:56:1
-1:-1
0:51:1
-1:-1
0:66:1
-1:1
0:78:1
-1:1
0:45:1
-1:1
0:61:1
-1:1
0:44:1
-1:-1
2:58:1
0:-1
0:71:1
-1:-1
0:72:1
-1:-1
1:45:1
-1:-1
0:55:1
-1:1
0:43:1
-1:1
3:50:1
0:1
0:47:2
-1:-1
1:31:1
-1:-1
0:54:1
-1:-1
0:51:1
-1:1
0:54:1
-1:-1
2:47:1
0:1
0:58:2
-1:0
0:50:1
-1:1
0:30:1
-1:1
2:56:1
0:1
0:37:2
-1:-1
1:50:1
-1:-1
0:44:1
-1:-1
0:57:1
-1:1
0:54:1
-1:-1
2:38:1
0:1
2:46:2
0:-1
1:35:2
-1:-1
1:41:1
-1:1
2:57:1
0:-1
3:38:1
0:-1
0:37:1
-1:-1
1:37:1
-1:-1
0:38:1
-1:1
2:52:1
0:-1
0:42:1
-1:-1
0:33:1
-1:1
2:49:1
0:1
0:35:2
-1:-1
0:51:1
-1:1
2:52:1
0:-1
2:54:1
0:-1
0:46:1
-1:1
0:40:1
-1:1
0:42:1
-1:1
2:36:1
0:-1
3:42:1
0:1
3:39:2
0:-1
0:27:2
-1:-1
0:66:1
-1:1
4:71:1
1:1
3:64:2
0:-1
0:79:2
-1:0
4:73:1
1:-1
0:32:1
-1:-1
0:39:1
-1:1
0:42:1
-1:1
11:34:1
2:1
15:33:3
2:0
15:33:4
2:0
15:30:5
2:1
15:29:7
2:1
8:17:9
2:-1
0:37:9
-1:-1
0:6:8
-1:-1
0:25:7
-1:0
2:8:6
0:-1
0:13:6
-1:-1
2:2:5
0:-1
0:4:5
-1:-1
1:21:4
-1:0
1:23:3
-1:-1
2:15:2
0:-1
0:12:2
-1:-1
1:20:1
-1:-1
3:10:1
0:-1
0:10:1
-1:-1
0:2:1
-1:1
3:10:1
0:1
0:12:2
-1:-1
2:9:1
0:1
0:15:2
-1:-1
0:3:1
-1:-1
0:2:1
-1:1
3:9:1
0:-1
5:1:1
1:-1
0:9:1
-1:-1
0:1:1
-1:-1
0:13:1
-1:1
1:6:1
-1:-1
1:4:1
-1:1
0:19:1
-1:-1
0:1:1
-1:-1
3:13:1
0:-1
0:9:1
-1:-1
8:8:1
2:1
4:5:3
1:-1
0:18:3
-1:1
0:4:3
-1:0
0:2:2
-1:0
3:13:1
0:1
0:4:2
-1:-1
0:2:1
-1:-1
0:4:1
-1:-1
0:8:1
-1:-1
1:8:1
-1:-1
0:7:1
-1:1
1:13:1
-1:-1
0:6:1
-1:-1
1:7:1
-1:1
2:3:1
0:-1
0:11:1
-1:-1
3:3:1
0:-1
0:8:1
-1:-1
0:5:1
-1:-1
0:2:1
-1:1
2:6:1
0:-1
0:2:1
-1:-1
0:4:1
-1:-1
0:1:1
-1:-1
1:4:1
-1:1
1:5:1
-1:-1
0:2:1
-1:-1
0:7:1
-1:1
0:3:1
-1:-1
3:10:1
0:1
0:9:2
-1:-1
9:9:1
2:-1
4:6:1
1:-1
0:17:1
-1:-1
0:6:1
-1:1
0:3:1
-1:-1
3:10:1
0:1
0:5:2
-1:-1
1:3:1
-1:-1
0:5:1
-1:-1
0:9:1
-1:-1
1:10:1
-1:-1
1:7:1
-1:1
0:12:1
-1:-1
1:7:1
-1:1
1:7:1
-1:-1
3:4:1
0:-1
0:10:1
-1:-1
1:3:1
-1:-1
0:11:1
-1:-1
0:3:1
-1:-1
1:6:1
-1:-1
2:1:1
0:-1
0:5:1
-1:-1
1:2:1
-1:-1
1:7:1
-1:1
1:6:1
-1:-1
0:2:1
-1:-1
3:5:1
0:-1
0:3:1
-1:-1
3:11:1
0:-1
0:7:1
-1:-1
11:11:1
2:1
5:6:3
1:-1
0:15:3
-1:0
0:4:2
-1:0
0:8:1
-1:-1
0:5:1
-1:-1
1:7:1
-1:-1
0:4:1
-1:-1
0:9:1
-1:-1
1:10:1
-1:-1
1:7:1
-1:1
1:14:1
-1:-1
1:6:1
-1:-1
1:7:1
-1:1
1:1:1
-1:-1
2:3:1
0:-1
0:7:1
-1:-1
0:5:1
-1:-1
0:7:1
-1:1
0:2:1
-1:-1
1:4:1
-1:-1
2:1:1
0:-1
0:4:1
-1:-1
0:3:1
-1:-1
0:6:1
-1:1
0:11:1
-1:-1
0:2:1
-1:-1
2:8:1
0:1
2:9:2
0:0
3:10:2
0:0
0:16:2
-1:0
0:4:1
-1:1
0:11:1
-1:1
0:4:1
-1:-1
0:3:1
-1:-1
0:1:1
-1:-1
0:3:1
-1:1
0:6:1
-1:-1
1:6:1
-1:-1
0:7:1
-1:1
1:12:1
-1:-1
0:6:1
-1:-1
1:6:1
-1:-1
3:4:1
0:-1
0:6:1
-1:-1
0:13:1
-1:-1
0:3:1
-1:-1
1:5:1
-1:-1
2:1:1
0:-1
2:3:1
0:-1
0:1:1
-1:-1
0:3:1
-1:-1
0:4:1
-1:-1
0:4:1
-1:-1
1:7:1
-1:1
0:9:1
-1:-1
0:33:1
-1:-1
2:35:1
0:-1
0:29:1
-1:1
1:42:1
-1:-1
0:51:1
-1:-1
0:67:1
-1:-1
2:22:1
0:1
0:66:2
-1:-1
1:48:1
-1:-1
2:61:1
0:-1
1:52:1
-1:-1
0:40:1
-1:-1
0:65:1
-1:-1
0:62:1
-1:1
0:62:1
-1:1
0:56:1
-1:1
0:55:1
-1:1
0:59:1
-1:-1
0:71:1
-1:1
0:45:1
-1:1
2:65:1
0:1
1:42:2
-1:0
0:41:1
-1:-1
0:65:1
-1:-1
0:63:1
-1:1
0:47:1
-1:1
2:59:1
0:1
2:35:2
0:-1
0:49:2
-1:-1
0:51:1
-1:-1
0:33:1
-1:1
0:48:1
-1:1
2:50:1
0:1
0:48:2
-1:-1
2:42:1
0:1
0:60:2
-1:-1
0:50:1
-1:1
0:31:1
-1:1
1:49:1
-1:1
0:33:1
-1:-1
0:37:1
-1:1
0:42:1
-1:1
1:61:1
-1:1
0:61:1
-1:-1
0:32:1
-1:-1
2:39:1
0:1
1:42:2
-1:-1
0:34:1
-1:-1
0:57:1
-1:-1
1:40:1
-1:1
1:26:1
-1:1
2:47:1
0:-1
0:33:1
-1:-1
2:27:1
0:1
2:59:2
0:-1
0:36:2
-1:0
0:48:1
-1:-1
0:35:1
-1:1
0:50:1
-1:1
3:54:1
0:1
0:51:2
-1:-1
0:53:1
-1:1
0:41:1
-1:-1
1:39:1
-1:-1
2:43:1
0:1
0:34:2
-1:0
0:41:1
-1:1
0:36:1
-1:1
2:70:1
0:1
3:73:2
0:0
0:69:2
-1:-1
3:74:1
0:1
0:77:2
-1:-1
0:39:1
-1:1
0:42:1
-1:1
0:43:1
-1:-1
9:34:1
2:-1
15:37:1
2:1
15:24:3
2:0
7:30:4
1:1
15:27:5
2:1
2:18:7
0:1
0:41:8
-1:0
0:6:7
-1:-1
0:22:6
-1:0
3:12:5
0:-1
2:15:5
0:-1
0:4:5
-1:-1
0:5:4
-1:-1
3:25:3
0:1
2:19:4
0:-1
1:12:4
-1:-1
0:19:3
-1:0
2:13:2
0:0
4:10:2
1:-1
0:4:2
-1:0
3:10:1
0:1
2:9:2
0:-1
0:7:2
-1:-1
0:17:1
-1:-1
0:2:1
-1:-1
3:8:1
0:-1
5:1:1
1:-1
0:10:1
-1:-1
0:1:1
-1:-1
0:17:1
-1:1
1:5:1
-1:-1
0:3:1
-1:-1
14:10:1
2:-1
0:12:1
-1:-1
0:1:1
-1:-1
2:12:1
0:-1
9:7:1
2:-1
6:8:1
1:1
3:10:2
0:0
0:8:2
-1:-1
0:14:1
-1:-1
0:2:1
-1:1
3:8:1
0:1
0:4:2
-1:-1
0:5:1
-1:1
0:6:1
-1:1
0:9:1
-1:-1
0:8:1
-1:-1
0:8:1
-1:-1
0:14:1
-1:-1
0:8:1
-1:-1
0:3:1
-1:-1
2:4:1
0:1
0:11:2
-1:-1
2:13:1
0:-1
0:4:1
-1:-1
1:4:1
-1:-1
0:2:1
-1:-1
0:1:1
-1:-1
1:2:1
-1:-1
0:5:1
-1:-1
0:7:1
-1:1
0:11:1
-1:1
0:1:1
-1:-1
3:13:1
0:-1
0:9:1
-1:-1
8:8:1
2:-1
4:7:1
1:-1
0:16:1
-1:1
0:7:1
-1:-1
0:3:1
-1:-1
3:10:1
0:1
0:4:2
-1:-1
0:3:1
-1:-1
0:5:1
-1:1
0:9:1
-1:-1
1:8:1
-1:-1
1:8:1
-1:1
0:12:1
-1:-1
0:8:1
-1:1
0:5:1
-1:-1
3:4:1
0:1
0:8:2
-1:-1
2:8:1
0:-1
0:9:1
-1:-1
0:4:1
-1:-1
0:1:1
-1:-1
1:4:1
-1:-1
2:1:1
0:-1
0:3:1
-1:-1
0:1:1
-1:-1
1:5:1
-1:-1
1:5:1
-1:-1
0:0:1
-1:-1
0:9:1
-1:1
0:4:1
-1:1
1:11:1
-1:-1
11:10:1
2:1
5:6:3
1:-1
3:10:3
0:0
0:18:3
-1:0
0:8:2
-1:0
0:4:1
-1:-1
3:10:1
0:1
0:5:2
-1:-1
0:3:1
-1:1
0:4:1
-1:1
0:10:1
-1:-1
1:9:1
-1:-1
0:7:1
-1:1
0:13:1
-1:-1
0:7:1
-1:-1
0:5:1
-1:-1
3:4:1
0:1
0:8:2
-1:-1
2:10:1
0:-1
0:13:1
-1:-1
0:3:1
-1:-1
1:4:1
-1:-1
2:1:1
0:-1
0:4:1
-1:-1
1:3:1
-1:-1
0:4:1
-1:-1
0:3:1
-1:1
0:8:1
-1:1
3:7:1
0:-1
0:2:1
-1:1
0:18:1
-1:-1
2:38:1
0:-1
0:24:1
-1:-1
0:31:1
-1:1
3:40:1
0:1
0:76:2
-1:-1
2:43:1
0:1
0:27:2
-1:-1
2:68:1
0:1
0:52:2
-1:-1
2:70:1
0:1
0:46:2
-1:-1
0:34:1
-1:-1
2:70:1
0:1
2:60:2
0:0
1:60:2
-1:-1
0:50:1
-1:1
0:62:1
-1:-1
0:69:1
-1:-1
0:59:1
-1:1
0:47:1
-1:1
0:62:1
-1:-1
0:38:1
-1:1
2:56:1
0:1
0:57:2
-1:-1
2:64:1
0:1
0:44:2
-1:-1
2:55:1
0:1
2:39:2
0:-1
3:46:2
0:0
0:49:2
-1:-1
0:33:1
-1:-1
1:64:1
-1:1
0:38:1
-1:1
2:51:1
0:1
1:44:2
-1:-1
3:60:1
0:-1
1:39:1
-1:-1
0:29:1
-1:-1
0:51:1
-1:1
0:36:1
-1:1
1:41:1
-1:-1
0:38:1
-1:-1
0:65:1
-1:1
0:56:1
-1:1
0:26:1
-1:-1
2:40:1
0:1
0:38:2
-1:-1
0:34:1
-1:-1
3:58:1
0:1
2:41:2
0:-1
0:27:2
-1:0
3:48:1
0:1
0:30:2
-1:0
2:23:1
0:1
2:58:2
0:-1
0:37:2
-1:-1
2:55:1
0:1
0:27:2
-1:-1
0:42:1
-1:-1
0:55:1
-1:1
2:49:1
0:-1
3:56:1
0:1
2:47:2
0:-1
3:31:2
0:-1
3:47:2
0:-1
0:38:2
-1:0
0:37:1
-1:-1
0:43:1
-1:1
0:47:1
-1:1
0:63:1
-1:-1
0:76:1
-1:1
0:70:1
-1:1
0:81:1
-1:-1
2:49:1
0:1
0:38:2
-1:-1
3:44:1
0:1
15:39:2
2:-1
15:37:2
2:1
15:30:4
2:0
15:30:5
2:1
15:29:7
2:-1
0:25:7
-1:0
0:29:6
-1:-1
0:21:5
-1:-1
0:19:4
-1:-1
0:4:3
-1:0
3:12:2
0:0
2:14:2
0:-1
0:4:2
-1:-1
5:10:1
1:-1
0:28:1
-1:1
0:12:1
-1:1
3:12:1
0:1
0:18:2
-1:0
2:12:1
0:-1
4:7:1
1:-1
0:5:1
-1:-1
1:8:1
-1:-1
2:3:1
0:1
2:9:2
0:-1
3:9:2
0:-1
0:12:2
-1:-1
0:11:1
-1:-1
0:6:1
-1:-1
0:8:1
-1:-1
3:4:1
0:-1
4:1:1
1:1
1:10:2
-1:-1
0:2:1
-1:1
0:1:1
-1:-1
0:14:1
-1:1
2:10:1
0:1
0:4:2
-1:-1
0:3:1
-1:-1
0:18:1
-1:-1
0:1:1
-1:-1
2:15:1
0:-1
14:12:1
2:-1
7:8:1
1:-1
3:11:1
0:1
0:12:2
-1:-1
0:17:1
-1:-1
0:7:1
-1:-1
3:11:1
0:1
0:7:2
-1:-1
0:3:1
-1:-1
2:4:1
0:-1
0:1:1
-1:-1
0:9:1
-1:-1
0:11:1
-1:1
1:10:1
-1:-1
0:13:1
-1:-1
0:8:1
-1:1
1:8:1
-1:1
5:6:1
1:-1
0:12:1
-1:-1
0:3:1
-1:-1
1:13:1
-1:1
1:2:1
-1:-1
0:2:1
-1:-1
1:5:1
-1:-1
0:1:1
-1:-1
0:3:1
-1:-1
0:1:1
-1:-1
2:4:1
0:1
0:4:2
-1:-1
1:4:1
-1:-1
0:2:1
-1:1
2:11:1
0:-1
0:9:1
-1:-1
10:10:1
2:1
3:4:3
0:-1
0:17:3
-1:1
0:6:3
-1:-1
0:2:2
-1:-1
3:10:1
0:1
0:7:2
-1:-1
0:1:1
-1:-1
0:4:1
-1:-1
0:9:1
-1:-1
1:8:1
-1:-1
0:5:1
-1:1
1:13:1
-1:-1
0:6:1
-1:-1
1:8:1
-1:1
3:4:1
0:-1
0:7:1
-1:-1
1:12:1
-1:-1
0:3:1
-1:-1
0:4:1
-1:-1
0:1:1
-1:-1
0:1:1
-1:-1
1:3:1
-1:-1
0:2:1
-1:-1
0:8:1
-1:1
1:5:1
-1:-1
0:7:1
-1:-1
0:1:1
-1:-1
3:12:1
0:-1
9:6:1
2:-1
7:9:1
1:1
3:8:2
0:-1
0:18:2
-1:1
1:8:2
-1:0
0:1:1
-1:-1
3:10:1
0:1
0:4:2
-1:-1
0:6:1
-1:1
0:4:1
-1:1
0:5:1
-1:-1
1:7:1
-1:-1
0:8:1
-1:1
1:14:1
-1:-1
0:7:1
-1:-1
0:7:1
-1:1
2:4:1
0:-1
0:7:1
-1:-1
0:12:1
-1:-1
0:3:1
-1:-1
0:3:1
-1:-1
1:2:1
-1:1
2:1:1
0:-1
0:3:1
-1:-1
0:1:1
-1:-1
1:5:1
-1:-1
2:6:1
0:-1
0:8:1
-1:1
0:9:1
-1:1
2:11:1
0:-1
12:10:1
2:1
9:11:3
2:0
4:10:4
1:0
0:10:5
-1:-1
0:14:4
-1:-1
0:1:3
-1:-1
3:9:2
0:1
0:5:3
-1:-1
0:3:2
-1:0
0:6:1
-1:1
0:8:1
-1:-1
1:9:1
-1:-1
1:8:1
-1:1
0:13:1
-1:-1
0:9:1
-1:-1
1:7:1
-1:1
2:3:1
0:-1
0:11:1
-1:-1
0:4:1
-1:-1
0:12:1
-1:1
0:3:1
-1:-1
1:5:1
-1:-1
0:2:1
-1:-1
0:5:1
-1:-1
0:1:1
-1:-1
0:2:1
-1:-1
0:4:1
-1:-1
0:1:1
-1:-1
0:4:1
-1:-1
1:2:1
-1:-1
0:7:1
-1:-1
0:1:1
-1:-1
0:35:1
-1:1
3:31:1
0:1
4:31:2
1:-1
0:42:2
-1:-1
0:45:1
-1:1
0:67:1
-1:1
2:24:1
0:1
2:59:2
0:-1
2:42:2
0:-1
0:65:2
-1:-1
2:58:1
0:1
0:41:2
-1:0
0:62:1
-1:-1
0:60:1
-1:-1
2:58:1
0:-1
0:56:1
-1:-1
0:39:1
-1:1
0:59:1
-1:-1
0:75:1
-1:1
3:40:1
0:-1
0:54:1
-1:-1
0:45:1
-1:-1
0:51:1
-1:-1
2:63:1
0:1
0:56:2
-1:-1
0:59:1
-1:1
0:58:1
-1:-1
2:38:1
0:1
0:45:2
-1:-1
0:46:1
-1:1
0:40:1
-1:1
0:61:1
-1:1
0:56:1
-1:1
2:47:1
0:1
0:42:2
-1:-1
2:62:1
0:1
0:41:2
-1:0
0:29:1
-1:1
0:53:1
-1:1
0:35:1
-1:1
0:40:1
-1:-1
0:44:1
-1:-1
0:64:1
-1:1
0:50:1
-1:1
2:36:1
0:1
2:47:2
0:-1
2:39:2
0:-1
1:37:2
-1:-1
2:58:1
0:-1
3:37:1
0:-1
2:40:1
0:-1
2:44:1
0:-1
0:30:1
-1:-1
2:54:1
0:1
0:39:2
-1:-1
0:45:1
-1:1
0:42:1
-1:1
0:41:1
-1:1
3:50:1
0:1
2:50:2
0:-1
2:57:2
0:0
3:53:2
0:-1
3:31:2
0:-1
3:46:2
0:-1
0:43:2
-1:-1
0:38:1
-1:-1
0:41:1
-1:1
2:54:1
0:1
0:57:2
-1:0
0:76:1
-1:1
0:69:1
-1:1
2:80:1
0:-1
2:52:1
0:-1
0:38:1
-1:-1
3:44:1
0:1
15:40:2
2:-1
15:39:2
2:0
13:29:3
2:1
15:29:5
2:1
15:31:7
2:0
0:26:8
-1:1
0:33:8
-1:-1
0:16:7
-1:-1
0:22:6
-1:0
0:17:5
-1:-1
2:10:4
0:-1
0:3:4
-1:-1
5:10:3
1:0
0:26:4
-1:0
0:19:3
-1:0
0:14:2
-1:0
0:16:1
-1:1
2:13:1
0:-1
0:10:1
-1:-1
0:2:1
-1:1
3:10:1
0:1
0:13:2
-1:-1
6:10:1
1:-1
0:9:1
-1:-1
0:3:1
-1:-1
0:5:1
-1:-1
3:2:1
0:1
5:1:2
1:-1
2:11:2
0:0
0:0:2
-1:-1
0:1:1
-1:-1
0:16:1
-1:1
0:4:1
-1:-1
0:7:1
-1:1
0:22:1
-1:-1
0:2:1
-1:-1
2:13:1
0:-1
0:10:1
-1:-1
10:10:1
2:1
3:4:3
0:-1
0:17:3
-1:0
0:8:2
-1:0
0:3:1
-1:-1
3:8:1
0:1
0:5:2
-1:-1
0:1:1
-1:-1
0:4:1
-1:-1
0:12:1
-1:-1
1:10:1
-1:-1
2:7:1
0:1
1:14:2
-1:-1
0:6:1
-1:-1
1:8:1
-1:1
4:5:1
1:-1
0:10:1
-1:-1
0:12:1
-1:-1
0:4:1
-1:-1
0:2:1
-1:-1
0:5:1
-1:-1
1:1:1
-1:-1
0:1:1
-1:-1
0:3:1
-1:-1
0:2:1
-1:-1
0:4:1
-1:1
0:6:1
-1:1
1:6:1
-1:-1
0:6:1
-1:-1
3:11:1
0:-1
0:8:1
-1:1
11:11:1
2:1
4:5:3
1:-1
0:16:3
-1:0
1:6:2
-1:0
0:2:1
-1:-1
3:9:1
0:1
0:4:2
-1:-1
0:1:1
-1:-1
0:5:1
-1:1
0:11:1
-1:-1
0:9:1
-1:-1
0:5:1
-1:-1
0:13:1
-1:-1
0:7:1
-1:-1
1:7:1
-1:1
3:4:1
0:-1
0:11:1
-1:-1
0:4:1
-1:-1
0:12:1
-1:-1
0:3:1
-1:-1
1:6:1
-1:-1
0:2:1
-1:-1
0:5:1
-1:1
0:4:1
-1:1
0:5:1
-1:-1
1:2:1
-1:-1
0:3:1
-1:-1
3:11:1
0:-1
0:7:1
-1:-1
8:8:1
2:-1
4:5:1
1:-1
0:15:1
-1:1
0:8:1
-1:-1
0:9:1
-1:-1
3:4:1
0:-1
0:4:1
-1:-1
0:1:1
-1:-1
0:4:1
-1:-1
0:10:1
-1:-1
1:8:1
-1:-1
0:4:1
-1:1
1:14:1
-1:-1
0:7:1
-1:-1
1:6:1
-1:1
1:1:1
-1:-1
3:4:1
0:-1
0:10:1
-1:-1
3:4:1
0:-1
0:11:1
-1:-1
0:3:1
-1:-1
1:5:1
-1:-1
2:1:1
0:-1
0:5:1
-1:-1
1:4:1
-1:1
1:2:1
-1:-1
0:3:1
-1:-1
6:9:1
1:1
0:1:2
-1:-1
3:20:1
0:-1
2:51:1
0:1
3:24:2
0:-1
3:38:2
0:0
2:47:2
0:1
3:84:3
0:-1
0:18:3
-1:-1
0:59:2
-1:0
0:55:1
-1:1
0:59:1
-1:-1
1:65:1
-1:1
0:38:1
-1:-1
0:54:1
-1:1
0:69:1
-1:1
2:61:1
0:-1
2:59:1
0:-1
0:49:1
-1:-1
0:68:1
-1:-1
0:73:1
-1:-1
0:42:1
-1:1
0:55:1
-1:1
0:48:1
-1:1
2:55:1
0:1
0:65:2
-1:-1
0:68:1
-1:-1
0:50:1
-1:1
0:59:1
-1:-1
2:37:1
0:1
2:51:2
0:-1
2:51:2
0:-1
0:35:2
-1:-1
0:51:1
-1:-1
0:56:1
-1:1
2:58:1
0:1
2:50:2
0:-1
2:63:2
0:0
0:36:2
-1:-1
0:31:1
-1:1
1:57:1
-1:1
2:42:1
0:-1
1:46:1
-1:-1
0:42:1
-1:-1
0:63:1
-1:1
0:46:1
-1:-1
0:34:1
-1:1
0:45:1
-1:1
0:36:1
-1:1
3:35:1
0:1
0:55:2
-1:-1
0:46:1
-1:1
0:41:1
-1:1
2:42:1
0:1
0:35:2
-1:-1
2:55:1
0:1
0:41:2
-1:-1
0:37:1
-1:-1
0:47:1
-1:1
1:50:1
-1:1
0:50:1
-1:1
3:50:1
0:-1
3:57:1
0:-1
2:48:1
0:-1
3:33:1
0:-1
1:46:1
-1:-1
0:40:1
-1:1
0:40:1
-1:-1
0:44:1
-1:1
1:56:1
-1:1
2:65:1
0:-1
4:82:1
1:-1
1:68:1
-1:-1
0:82:1
-1:-1
0:53:1
-1:1
0:40:1
-1:1
0:49:1
-1:1
15:31:1
2:1
15:43:3
2:0
15:32:4
2:1
1:28:6
-1:1
15:26:6
2:0
0:24:7
-1:1
0:31:7
-1:-1
0:19:6
-1:1
0:23:6
-1:-1
0:1:5
-1:-1
2:19:4
0:0
2:6:4
0:-1
0:4:4
-1:-1
1:8:3
-1:0
0:32:2
-1:-1
0:19:1
-1:1
0:13:1
-1:1
0:18:1
-1:1
2:10:1
0:-1
0:10:1
-1:-1
0:2:1
-1:1
3:10:1
0:1
0:13:2
-1:-1
0:9:1
-1:-1
0:17:1
-1:-1
0:2:1
-1:-1
3:8:1
0:-1
0:0:1
-1:-1
0:9:1
-1:-1
0:4:1
-1:1
0:1:1
-1:-1
2:12:1
0:-1
0:4:1
-1:1
0:5:1
-1:-1
0:6:1
-1:-1
0:21:1
-1:1
2:14:1
0:-1
10:8:1
2:-1
4:6:1
1:1
2:11:2
0:1
0:16:3
-1:1
0:11:3
-1:-1
0:2:2
-1:-1
3:12:1
0:1
1:6:2
-1:-1
0:5:1
-1:1
0:3:1
-1:1
0:9:1
-1:-1
0:7:1
-1:-1
0:9:1
-1:-1
3:4:1
0:-1
0:16:1
-1:-1
0:1:1
-1:-1
1:7:1
-1:-1
0:1:1
-1:-1
3:6:1
0:-1
0:7:1
-1:-1
0:12:1
-1:-1
0:2:1
-1:-1
0:1:1
-1:-1
1:5:1
-1:-1
2:1:1
0:-1
0:5:1
-1:-1
0:4:1
-1:1
0:4:1
-1:-1
0:7:1
-1:-1
0:11:1
-1:-1
2:13:1
0:-1
11:9:1
2:-1
3:6:1
0:-1
2:12:1
0:1
0:12:2
-1:-1
0:16:1
-1:1
0:5:1
-1:1
3:12:1
0:1
0:5:2
-1:-1
0:3:1
-1:1
0:4:1
-1:1
0:6:1
-1:-1
1:6:1
-1:-1
1:8:1
-1:1
0:14:1
-1:1
1:8:1
-1:1
1:6:1
-1:1
1:1:1
-1:-1
3:4:1
0:-1
0:12:1
-1:-1
1:4:1
-1:-1
0:9:1
-1:-1
0:5:1
-1:-1
0:1:1
-1:-1
1:5:1
-1:-1
2:1:1
0:-1
0:4:1
-1:-1
0:7:1
-1:-1
1:3:1
-1:-1
0:4:1
-1:-1
1:7:1
-1:1
0:2:1
-1:-1
3:14:1
0:-1
3:13:1
0:1
3:12:2
0:0
0:18:2
-1:0
0:6:1
-1:1
0:1:1
-1:-1
3:11:1
0:1
0:7:2
-1:-1
0:3:1
-1:1
0:3:1
-1:1
0:8:1
-1:-1
1:9:1
-1:-1
1:9:1
-1:1
1:15:1
-1:-1
2:6:1
0:-1
1:7:1
-1:1
3:4:1
0:-1
0:10:1
-1:-1
2:6:1
0:-1
0:10:1
-1:-1
0:4:1
-1:-1
0:1:1
-1:-1
1:5:1
-1:-1
2:1:1
0:-1
0:6:1
-1:-1
0:10:1
-1:-1
0:2:1
-1:1
1:4:1
-1:-1
0:7:1
-1:-1
0:2:1
-1:1
3:15:1
0:-1
3:12:1
0:1
3:12:2
0:1
0:20:3
-1:1
0:7:3
-1:0
0:6:2
-1:1
0:6:2
-1:-1
0:5:1
-1:-1
0:1:1
-1:-1
0:3:1
-1:1
0:8:1
-1:-1
0:6:1
-1:-1
0:14:1
-1:-1
3:3:1
0:-1
0:15:1
-1:-1
0:1:1
-1:-1
0:5:1
-1:-1
3:4:1
0:1
0:10:2
-1:-1
0:5:1
-1:-1
2:9:1
0:-1
0:5:1
-1:-1
0:2:1
-1:-1
1:4:1
-1:-1
2:1:1
0:-1
0:6:1
-1:-1
0:2:1
-1:-1
0:7:1
-1:1
0:7:1
-1:1
0:10:1
-1:1
1:2:1
-1:1
0:51:1
-1:-1
0:29:1
-1:1
2:41:1
0:1
0:34:2
-1:-1
2:61:1
0:-1
0:43:1
-1:-1
0:24:1
-1:-1
0:61:1
-1:-1
3:47:1
0:-1
0:63:1
-1:-1
3:60:1
0:1
0:38:2
-1:-1
3:65:1
0:1
2:63:2
0:-1
1:59:2
-1:-1
0:55:1
-1:1
2:45:1
0:-1
0:66:1
-1:-1
2:74:1
0:1
3:39:2
0:-1
0:49:2
-1:-1
0:45:1
-1:1
0:47:1
-1:-1
0:68:1
-1:-1
0:42:1
-1:1
2:67:1
0:1
2:45:2
0:-1
0:43:2
-1:-1
2:53:1
0:1
0:47:2
-1:-1
0:44:1
-1:1
0:56:1
-1:1
0:49:1
-1:1
0:57:1
-1:-1
2:56:1
0:1
0:53:2
-1:-1
0:41:1
-1:-1
0:26:1
-1:1
0:52:1
-1:1
1:36:1
-1:1
1:45:1
-1:1
1:40:1
-1:-1
0:66:1
-1:1
0:46:1
-1:1
2:33:1
0:1
2:45:2
0:-1
2:39:2
0:-1
1:41:2
-1:-1
2:58:1
0:-1
0:41:1
-1:-1
0:40:1
-1:-1
2:43:1
0:1
0:23:2
-1:-1
1:52:1
-1:-1
0:39:1
-1:1
0:38:1
-1:1
0:44:1
-1:1
0:48:1
-1:1
2:49:1
0:1
2:49:2
0:-1
0:57:2
-1:-1
1:52:1
-1:-1
3:32:1
0:-1
4:50:1
1:-1
0:34:1
-1:-1
0:40:1
-1:-1
0:44:1
-1:-1
0:47:1
-1:1
0:66:1
-1:1
0:79:1
-1:1
0:74:1
-1:1
5:75:1
1:1
2:44:2
0:0
0:40:2
-1:-1
0:49:1
-1:1
15:32:1
2:1
15:36:3
2:1
14:31:5
2:1
15:29:7
2:0
15:24:8
2:-1
0:26:8
-1:1
0:29:8
-1:-1
0:19:7
-1:-1
0:20:6
-1:-1
0:4:5
-1:-1
2:18:4
0:0
2:7:4
0:-1
0:4:4
-1:-1
0:6:3
-1:-1
0:27:2
-1:0
1:24:1
-1:1
0:8:1
-1:-1
0:18:1
-1:1
2:15:1
0:1
0:10:2
-1:-1
0:2:1
-1:1
3:9:1
0:1
0:8:2
-1:-1
2:6:1
0:-1
2:15:1
0:-1
0:4:1
-1:-1
0:3:1
-1:-1
3:8:1
0:-1
5:1:1
1:-1
0:12:1
-1:-1
0:1:1
-1:-1
0:19:1
-1:1
0:5:1
-1:-1
15:16:1
2:1
0:7:3
-1:1
3:13:3
0:-1
0:8:3
-1:-1
8:8:2
2:0
4:6:3
1:-1
0:19:3
-1:0
0:7:2
-1:0
0:3:1
-1:-1
3:9:1
0:1
0:5:2
-1:-1
0:3:1
-1:-1
1:5:1
-1:1
0:7:1
-1:-1
0:10:1
-1:1
0:11:1
-1:-1
2:4:1
0:-1
1:12:1
-1:-1
0:6:1
-1:-1
2:8:1
0:1
0:5:2
-1:-1
0:10:1
-1:-1
2:3:1
0:-1
0:10:1
-1:-1
0:3:1
-1:-1
0:1:1
-1:-1
1:5:1
-1:-1
2:1:1
0:-1
0:4:1
-1:-1
0:1:1
-1:-1
0:4:1
-1:1
0:3:1
-1:-1
0:5:1
-1:-1
0:1:1
-1:-1
3:12:1
0:-1
3:10:1
0:1
2:9:2
0:1
0:18:3
-1:0
0:6:2
-1:0
0:3:1
-1:-1
3:9:1
0:1
0:4:2
-1:-1
0:2:1
-1:-1
0:3:1
-1:1
0:8:1
-1:-1
1:9:1
-1:-1
2:7:1
0:1
1:13:2
-1:-1
0:6:1
-1:-1
0:6:1
-1:-1
3:4:1
0:1
2:9:2
0:-1
3:8:2
0:0
0:11:2
-1:-1
0:3:1
-1:-1
0:1:1
-1:-1
1:5:1
-1:-1
2:1:1
0:-1
0:5:1
-1:-1
1:5:1
-1:1
1:3:1
-1:-1
0:1:1
-1:-1
2:5:1
0:1
0:8:2
-1:1
0:7:2
-1:0
0:1:1
-1:-1
2:11:1
0:1
2:12:2
0:1
3:12:3
0:0
0:13:3
-1:0
0:14:2
-1:-1
0:3:1
-1:-1
3:12:1
0:1
0:6:2
-1:-1
0:2:1
-1:-1
0:3:1
-1:1
2:9:1
0:-1
0:9:1
-1:-1
1:10:1
-1:-1
1:13:1
-1:-1
0:6:1
-1:-1
0:6:1
-1:-1
5:6:1
1:1
0:9:2
-1:-1
0:7:1
-1:-1
0:14:1
-1:1
0:3:1
-1:-1
0:1:1
-1:-1
1:4:1
-1:-1
2:1:1
0:-1
0:7:1
-1:-1
0:6:1
-1:1
0:3:1
-1:1
0:9:1
-1:-1
1:3:1
-1:-1
1:48:1
-1:1
0:54:1
-1:1
3:49:1
0:-1
0:74:1
-1:1
0:46:1
-1:1
0:44:1
-1:1
2:58:1
0:1
0:48:2
-1:-1
3:74:1
0:1
0:43:2
-1:-1
2:50:1
0:1
0:74:2
-1:-1
0:58:1
-1:1
2:61:1
0:1
0:59:2
-1:-1
0:66:1
-1:1
2:69:1
0:-1
2:47:1
0:-1
0:66:1
-1:-1
0:46:1
-1:-1
0:56:1
-1:-1
0:68:1
-1:1
0:71:1
-1:-1
0:48:1
-1:-1
0:56:1
-1:-1
0:33:1
-1:-1
0:53:1
-1:1
2:53:1
0:1
0:30:2
-1:0
0:55:1
-1:-1
1:50:1
-1:1
0:56:1
-1:-1
0:46:1
-1:1
2:58:1
0:-1
0:38:1
-1:-1
0:37:1
-1:1
0:44:1
-1:1
0:39:1
-1:-1
0:39:1
-1:-1
3:49:1
0:-1
2:69:1
0:-1
0:61:1
-1:-1
1:30:1
-1:-1
0:42:1
-1:-1
0:39:1
-1:1
0:34:1
-1:-1
3:58:1
0:-1
1:47:1
-1:-1
0:44:1
-1:1
0:38:1
-1:1
0:42:1
-1:-1
1:37:1
-1:1
2:52:1
0:1
3:33:2
0:-1
1:59:2
-1:0
2:45:1
0:1
0:49:2
-1:0
2:52:1
0:-1
0:51:1
-1:-1
2:51:1
0:1
0:42:2
-1:0
3:47:1
0:1
2:41:2
0:-1
2:42:2
0:-1
1:37:2
-1:-1
0:30:1
-1:-1
1:73:1
-1:1
0:83:1
-1:-1
2:62:1
0:-1
0:79:1
-1:-1
0:64:1
-1:1
0:35:1
-1:1
2:35:1
0:1
0:49:2
-1:-1
7:36:1
1:-1
15:37:1
2:1
15:27:3
2:0
9:29:4
2:0
15:30:5
2:1
0:24:7
[...]
0:65:1
-1:1
0:54:1
-1:1
0:73:1
-1:1
0:66:1
-1:1
0:37:1
-1:1
0:68:1
-1:-1
0:51:1
-1:1
0:59:1
-1:-1
0:63:1
-1:1
0:79:1
-1:1
0:37:1
-1:-1
0:47:1
-1:1
0:45:1
-1:1
2:52:1
0:1
0:55:2
-1:-1
0:53:1
-1:-1
0:47:1
-1:1
0:53:1
-1:1
2:39:1
0:-1
2:61:1
0:-1
0:43:1
-1:-1
0:64:1
-1:1
0:45:1
-1:1
0:44:1
-1:1
2:67:1
0:1
0:61:2
-1:1
1:55:2
-1:1
0:48:2
-1:0
3:57:1
0:1
3:52:2
0:-1
2:48:2
0:-1
0:47:2
-1:0
2:56:1
0:1
0:69:2
-1:0
0:79:1
-1:1
0:81:1
-1:1
2:91:1
0:-1
1:48:1
-1:-1
2:45:1
0:-1
2:40:1
0:-1
10:53:1
2:-1
15:35:1
2:1
3:29:3
0:1
15:35:4
2:0
15:29:5
2:1
3:31:7
0:1
0:23:8
-1:1
0:35:8
-1:-1
0:11:7
-1:-1
0:3:6
-1:-1
4:35:5
1:-1
0:6:5
-1:-1
2:2:4
0:0
1:2:4
-1:-1
2:1:3
0:-1
3:2:3
0:-1
2:7:3
0:-1
1:1:3
-1:-1
2:1:2
0:-1
1:1:2
-1:-1
0:2:1
-1:-1
0:2:1
-1:-1
3:48:1
0:1
0:56:2
-1:-1
0:51:1
-1:-1
0:93:1
-1:1
0:28:1
-1:-1
0:47:1
-1:1
2:61:1
0:1
0:60:2
-1:-1
0:67:1
-1:1
2:52:1
0:1
0:54:2
-1:-1
2:75:1
0:-1
1:64:1
-1:1
0:67:1
-1:-1
0:50:1
-1:1
0:84:1
-1:1
0:84:1
-1:1
2:50:1
0:1
2:62:2
0:-1
0:49:2
-1:-1
2:66:1
0:1
2:74:2
0:-1
0:71:2
-1:-1
2:61:1
0:1
2:61:2
0:-1
3:48:2
0:1
2:50:3
0:-1
0:56:3
-1:0
0:62:2
-1:-1
1:72:1
-1:1
2:63:1
0:-1
2:67:1
0:-1
1:74:1
-1:-1
0:52:1
-1:-1
0:48:1
-1:-1
2:49:1
0:1
0:49:2
-1:-1
0:54:1
-1:1
0:73:1
-1:1
0:63:1
-1:1
2:46:1
0:1
0:50:2
-1:-1
1:46:1
-1:1
0:61:1
-1:-1
0:40:1
-1:1
0:44:1
-1:-1
3:52:1
0:-1
0:45:1
-1:-1
0:40:1
-1:1
0:58:1
-1:1
0:41:1
-1:1
0:59:1
-1:1
0:48:1
-1:-1
2:55:1
0:-1
0:60:1
-1:-1
0:54:1
-1:1
0:54:1
-1:1
0:50:1
-1:1
3:55:1
0:-1
0:52:1
-1:-1
0:46:1
-1:-1
0:46:1
-1:-1
1:55:1
-1:1
0:69:1
-1:-1
0:81:1
-1:1
0:87:1
-1:1
2:85:1
0:1
0:46:2
-1:-1
2:44:1
0:1
2:51:2
0:-1
15:38:2
2:-1
15:35:2
2:-1
11:34:2
2:1
15:32:4
2:0
15:29:5
2:1
7:29:7
1:0
0:43:8
-1:0
0:23:7
-1:-1
2:35:6
0:-1
0:10:6
-1:-1
0:3:5
-1:-1
1:0:4
-1:-1
2:2:3
0:-1
0:3:3
-1:0
2:5:2
0:1
0:3:3
-1:-1
2:2:2
0:0
1:3:2
-1:-1
2:2:1
0:-1
2:1:1
0:-1
2:1:1
0:-1
1:24:1
-1:-1
0:46:1
-1:-1
2:50:1
0:1
0:63:2
-1:-1
0:80:1
-1:-1
0:27:1
-1:-1
0:68:1
-1:-1
0:67:1
-1:1
0:80:1
-1:1
0:47:1
-1:1
0:46:1
-1:-1
0:77:1
-1:-1
2:62:1
0:-1
0:66:1
-1:-1
2:62:1
0:1
0:75:2
-1:-1
2:76:1
0:1
0:52:2
-1:-1
0:70:1
-1:1
0:48:1
-1:1
0:71:1
-1:-1
0:76:1
-1:1
0:72:1
-1:1
0:47:1
-1:1
3:66:1
0:-1
2:46:1
0:-1
3:48:1
0:1
0:53:2
-1:-1
0:53:1
-1:-1
1:78:1
-1:1
0:48:1
-1:1
2:56:1
0:1
2:74:2
0:-1
1:68:2
-1:-1
0:37:1
-1:-1
1:56:1
-1:1
0:43:1
-1:-1
0:64:1
-1:-1
0:56:1
-1:1
0:69:1
-1:-1
0:55:1
-1:1
0:35:1
-1:-1
0:46:1
-1:1
0:37:1
-1:1
2:69:1
0:-1
0:44:1
-1:-1
3:40:1
0:1
2:53:2
0:-1
0:38:2
-1:-1
3:42:1
0:-1
3:55:1
0:-1
2:43:1
0:-1
0:53:1
-1:-1
0:40:1
-1:-1
0:48:1
-1:1
0:66:1
-1:1
0:52:1
-1:1
3:60:1
0:1
0:46:2
-1:-1
2:50:1
0:1
0:53:2
-1:-1
3:45:1
0:-1
0:42:1
-1:-1
2:40:1
0:1
4:78:2
1:-1
0:84:2
-1:-1
0:72:1
-1:1
0:88:1
-1:-1
2:65:1
0:-1
2:40:1
0:-1
2:45:1
0:-1
1:51:1
-1:-1
14:31:1
2:-1
15:38:1
2:1
15:24:3
2:0
9:32:4
2:0
15:30:5
2:1
0:24:7
-1:1
0:44:7
-1:-1
0:16:6
-1:0
0:2:5
-1:-1
4:34:4
1:0
0:8:5
-1:-1
2:4:4
0:0
2:0:4
0:-1
2:1:4
0:-1
2:2:4
0:-1
3:3:4
0:-1
2:1:4
0:-1
2:3:4
0:-1
3:2:4
0:-1
4:1:4
1:-1
2:8:4
0:-1
2:46:4
0:0
3:52:4
0:-1
2:62:4
0:0
0:88:4
-1:-1
1:27:3
-1:0
0:53:2
-1:-1
0:64:1
-1:1
0:71:1
-1:1
0:66:1
-1:1
0:42:1
-1:-1
2:64:1
0:-1
1:66:1
-1:-1
0:72:1
-1:-1
0:60:1
-1:1
0:62:1
-1:1
0:71:1
-1:-1
0:74:1
-1:1
0:49:1
-1:-1
0:70:1
-1:1
0:43:1
-1:1
0:75:1
-1:1
0:63:1
-1:1
1:73:1
-1:-1
0:54:1
-1:-1
0:60:1
-1:1
0:50:1
-1:1
0:51:1
-1:1
2:53:1
0:1
0:67:2
-1:0
0:64:1
-1:1
2:67:1
0:-1
0:63:1
-1:-1
0:70:1
-1:-1
0:51:1
-1:1
0:57:1
-1:1
0:48:1
-1:-1
0:56:1
-1:1
0:55:1
-1:-1
0:75:1
-1:1
0:59:1
-1:1
0:39:1
-1:-1
0:48:1
-1:1
1:42:1
-1:1
0:59:1
-1:-1
1:44:1
-1:1
0:47:1
-1:1
0:46:1
-1:-1
0:46:1
-1:1
0:41:1
-1:1
0:65:1
-1:1
3:47:1
0:1
2:56:2
0:-1
0:48:2
-1:-1
0:59:1
-1:1
2:63:1
0:1
3:52:2
0:0
0:55:2
-1:0
3:45:1
0:1
3:55:2
0:-1
0:50:2
-1:-1
3:48:1
0:-1
0:46:1
-1:1
2:50:1
0:1
2:73:2
0:0
3:83:2
0:0
0:86:2
-1:0
2:80:1
0:1
0:50:2
-1:-1
2:47:1
0:1
0:53:2
-1:0
15:38:1
2:-1
15:40:1
2:-1
13:31:1
2:1
15:36:3
2:0
15:29:4
2:1
12:30:6
2:1
2:46:8
0:1
0:26:9
-1:-1
4:36:8
1:-1
0:11:8
-1:-1
2:6:7
0:-1
2:4:7
0:-1
3:2:7
0:-1
4:2:7
1:-1
3:3:7
0:-1
1:2:7
-1:-1
Heartbeat CPU 0 instructions: 10000001 cycles: 22925619 heartbeat IPC: 0.436193 cumulative IPC: 0.404171 (Simulation time: 0 hr 0 min 48 sec) 
3:4:6
0:-1
0:3:6
-1:-1
2:3:5
0:-1
0:3:5
-1:-1
3:3:4
0:0
0:19:4
-1:-1
1:57:3
-1:0
4:53:2
1:-1
0:71:2
-1:-1
0:63:1
-1:-1
0:28:1
-1:-1
0:64:1
-1:-1
0:51:1
-1:1
1:69:1
-1:1
1:63:1
-1:-1
0:42:1
-1:-1
2:72:1
0:1
0:63:2
-1:-1
4:72:1
1:1
0:55:2
-1:-1
0:65:1
-1:1
1:81:1
-1:1
1:69:1
-1:-1
0:51:1
-1:-1
0:74:1
-1:1
0:46:1
-1:1
0:83:1
-1:1
0:62:1
-1:1
2:79:1
0:1
2:49:2
0:-1
0:50:2
-1:-1
1:60:1
-1:1
0:54:1
-1:-1
0:45:1
-1:-1
0:81:1
-1:1
1:64:1
-1:1
2:60:1
0:-1
0:68:1
-1:-1
2:63:1
0:-1
0:48:1
-1:-1
0:61:1
-1:1
2:50:1
0:1
0:62:2
-1:-1
0:60:1
-1:1
0:72:1
-1:1
0:48:1
-1:1
0:50:1
-1:-1
0:40:1
-1:1
2:45:1
0:-1
3:60:1
0:-1
2:57:1
0:-1
0:40:1
-1:-1
0:44:1
-1:-1
2:45:1
0:1
3:47:2
0:-1
0:60:2
-1:-1
0:55:1
-1:1
3:48:1
0:1
2:51:2
0:-1
0:55:2
-1:-1
0:66:1
-1:1
3:57:1
0:-1
2:44:1
0:1
0:49:2
-1:-1
0:61:1
-1:1
0:37:1
-1:1
2:49:1
0:1
0:41:2
-1:1
0:70:2
-1:0
3:85:1
0:1
2:78:2
0:0
2:84:2
0:-1
1:72:2
-1:-1
0:41:1
-1:-1
3:49:1
0:-1
2:50:1
0:-1
11:37:1
2:-1
15:35:1
2:1
15:28:3
2:0
8:35:4
2:1
15:29:6
2:1
0:27:8
-1:0
1:42:7
-1:-1
0:16:6
-1:-1
2:10:5
0:-1
4:26:5
1:-1
0:8:5
-1:-1
2:4:4
0:0
1:1:4
-1:-1
2:3:3
0:-1
4:3:3
1:0
1:4:4
-1:0
2:1:3
0:0
2:1:3
0:-1
1:3:3
-1:-1
3:3:2
0:0
3:3:2
0:-1
0:3:2
-1:0
1:40:1
-1:-1
0:63:1
-1:-1
0:54:1
-1:1
2:81:1
0:1
0:37:2
-1:0
0:45:1
-1:1
2:59:1
0:-1
0:64:1
-1:-1
0:73:1
-1:1
2:55:1
0:-1
0:57:1
-1:-1
0:70:1
-1:1
0:64:1
-1:-1
0:65:1
-1:1
0:55:1
-1:1
0:77:1
-1:1
0:81:1
-1:-1
0:47:1
-1:1
1:61:1
-1:1
0:55:1
-1:-1
0:69:1
-1:1
0:76:1
-1:1
0:70:1
-1:1
0:60:1
-1:-1
2:61:1
0:-1
0:50:1
-1:1
0:51:1
-1:1
1:53:1
-1:1
1:61:1
-1:-1
0:67:1
-1:-1
0:63:1
-1:-1
3:58:1
0:-1
0:75:1
-1:-1
0:56:1
-1:-1
0:40:1
-1:1
2:57:1
0:-1
2:48:1
0:-1
2:49:1
0:-1
0:73:1
-1:1
0:70:1
-1:1
0:41:1
-1:1
0:48:1
-1:1
2:49:1
0:1
0:37:2
-1:-1
1:57:1
-1:1
2:54:1
0:-1
0:42:1
-1:-1
0:45:1
-1:-1
0:44:1
-1:1
1:53:1
-1:1
0:55:1
-1:1
1:57:1
-1:1
3:45:1
0:1
2:54:2
0:-1
0:55:2
-1:-1
0:61:1
-1:1
0:58:1
-1:1
2:46:1
0:1
1:47:2
-1:0
5:56:1
1:1
0:42:2
-1:-1
1:49:1
-1:1
1:39:1
-1:-1
4:70:1
1:-1
2:84:1
0:-1
0:82:1
-1:-1
2:78:1
0:1
0:77:2
-1:-1
0:42:1
-1:1
2:49:1
0:1
0:48:2
-1:-1
9:37:1
2:1
15:37:3
2:0
15:28:4
2:0
7:32:5
1:1
15:32:6
2:1
2:32:8
0:1
0:31:9
-1:-1
0:18:8
-1:-1
2:32:7
0:-1
0:11:7
-1:-1
0:6:6
-1:-1
0:1:5
-1:-1
1:0:4
-1:-1
1:0:3
-1:-1
1:4:2
-1:-1
1:3:1
-1:1
2:1:1
0:1
3:1:2
0:-1
1:3:2
-1:-1
0:1:1
-1:-1
0:1:1
-1:-1
3:0:1
0:-1
3:0:1
0:-1
2:32:1
0:-1
0:52:1
-1:-1
2:58:1
0:-1
3:72:1
0:-1
2:60:1
0:-1
1:30:1
-1:-1
2:64:1
0:-1
0:68:1
-1:-1
0:69:1
-1:1
0:58:1
-1:1
0:49:1
-1:-1
2:80:1
0:-1
0:67:1
-1:-1
2:64:1
0:1
0:63:2
-1:-1
0:76:1
-1:1
1:84:1
-1:1
2:48:1
0:-1
0:61:1
-1:1
0:49:1
-1:1
1:69:1
-1:-1
0:76:1
-1:-1
0:68:1
-1:-1
0:55:1
-1:1
0:63:1
-1:1
0:56:1
-1:1
2:46:1
0:1
0:48:2
-1:-1
0:47:1
-1:-1
0:84:1
-1:1
0:61:1
-1:1
0:52:1
-1:1
0:77:1
-1:1
0:60:1
-1:1
0:37:1
-1:1
0:63:1
-1:-1
2:50:1
0:1
0:52:2
-1:-1
0:61:1
-1:1
0:73:1
-1:1
0:48:1
-1:1
0:51:1
-1:-1
0:43:1
-1:1
1:43:1
-1:-1
0:54:1
-1:1
0:47:1
-1:-1
3:43:1
0:1
0:46:2
-1:-1
0:41:1
-1:-1
0:44:1
-1:1
0:59:1
-1:-1
0:43:1
-1:1
0:63:1
-1:1
0:46:1
-1:1
1:57:1
-1:1
2:54:1
0:1
0:56:2
-1:-1
0:53:1
-1:1
3:44:1
0:1
3:63:2
0:-1
2:45:2
0:1
3:41:3
0:0
0:46:3
-1:0
0:67:2
-1:0
3:86:1
0:1
1:72:2
-1:-1
0:94:1
-1:1
3:74:1
0:1
0:39:2
-1:0
2:49:1
0:1
6:52:2
1:-1
3:35:2
0:0
15:39:2
2:1
15:31:4
2:0
3:34:5
0:0
15:28:5
2:-1
0:26:5
-1:1
0:46:5
-1:-1
0:15:4
-1:0
0:24:3
-1:-1
4:13:2
1:0
0:5:3
-1:-1
0:5:2
-1:0
0:0:1
-1:-1
0:2:1
-1:-1
2:1:1
0:-1
2:0:1
0:-1
4:0:1
1:-1
1:2:1
-1:-1
4:1:1
1:-1
2:2:1
0:-1
0:2:1
-1:-1
3:52:1
0:1
3:58:2
0:-1
2:62:2
0:0
4:91:2
1:-1
0:23:2
-1:-1
0:51:1
-1:1
1:67:1
-1:1
1:68:1
-1:-1
2:65:1
0:-1
1:44:1
-1:-1
2:67:1
0:-1
0:65:1
-1:-1
3:72:1
0:-1
0:63:1
-1:-1
0:58:1
-1:-1
0:70:1
-1:1
0:85:1
-1:1
3:48:1
0:1
2:71:2
0:-1
0:46:2
-1:0
2:68:1
0:1
0:72:2
-1:-1
2:72:1
0:1
2:51:2
0:-1
2:57:2
0:-1
0:50:2
-1:1
3:56:2
0:0
1:55:2
-1:-1
0:62:1
-1:-1
1:67:1
-1:1
2:64:1
0:-1
2:67:1
0:-1
0:80:1
-1:-1
0:47:1
-1:1
0:50:1
-1:1
0:50:1
-1:1
0:53:1
-1:-1
3:54:1
0:-1
0:71:1
-1:-1
0:64:1
-1:1
0:36:1
-1:1
0:53:1
-1:1
3:43:1
0:-1
2:50:1
0:-1
0:51:1
-1:-1
2:48:1
0:1
0:40:2
-1:-1
0:53:1
-1:1
0:34:1
-1:-1
2:65:1
0:1
0:44:2
-1:-1
0:64:1
-1:1
1:46:1
-1:1
0:44:1
-1:1
0:65:1
-1:1
3:61:1
0:1
3:56:2
0:0
0:49:2
-1:0
3:54:1
0:1
3:56:2
0:-1
0:44:2
-1:-1
0:44:1
-1:1
1:48:1
-1:1
0:83:1
-1:1
0:83:1
-1:1
1:83:1
-1:1
2:92:1
0:-1
0:49:1
-1:-1
2:46:1
0:1
5:53:2
1:0
15:38:3
2:-1
15:39:3
2:1
14:31:5
2:0
15:35:6
2:0
15:29:7
2:0
15:29:8
2:1
0:51:10
-1:-1
3:37:9
0:-1
0:14:9
-1:-1
0:4:8
-1:-1
0:4:7
-1:-1
1:0:6
-1:-1
2:1:5
0:-1
0:0:5
-1:-1
0:4:4
-1:-1
1:3:3
-1:0
2:1:2
0:-1
3:2:2
0:0
3:2:2
0:-1
0:1:2
-1:-1
5:2:1
1:-1
4:2:1
1:-1
0:17:1
-1:-1
2:42:1
0:1
3:51:2
0:-1
2:64:2
0:0
4:90:2
1:-1
0:24:2
-1:-1
0:54:1
-1:1
0:66:1
-1:1
0:63:1
-1:1
0:61:1
-1:1
0:47:1
-1:1
0:64:1
-1:1
0:73:1
-1:1
2:74:1
0:-1
0:61:1
-1:-1
0:55:1
-1:1
3:80:1
0:1
0:79:2
-1:-1
3:48:1
0:-1
0:72:1
-1:-1
0:44:1
-1:1
2:76:1
0:-1
0:64:1
-1:-1
1:75:1
-1:-1
0:51:1
-1:-1
2:57:1
0:-1
0:49:1
-1:1
3:58:1
0:1
0:47:2
-1:-1
0:64:1
-1:-1
2:70:1
0:1
0:64:2
-1:-1
1:61:1
-1:1
0:75:1
-1:1
0:54:1
-1:1
0:52:1
-1:1
0:52:1
-1:1
0:49:1
-1:-1
2:53:1
0:1
0:75:2
-1:-1
0:64:1
-1:1
2:45:1
0:1
0:50:2
-1:-1
1:44:1
-1:1
0:59:1
-1:-1
1:44:1
-1:1
0:45:1
-1:1
0:48:1
-1:-1
0:42:1
-1:1
0:38:1
-1:1
2:63:1
0:1
2:46:2
0:-1
0:61:2
-1:0
2:49:1
0:1
2:58:2
0:0
2:65:2
0:-1
0:52:2
-1:0
0:53:1
-1:-1
0:49:1
-1:1
3:56:1
0:-1
0:51:1
-1:-1
0:44:1
-1:-1
0:43:1
-1:-1
2:56:1
0:1
2:72:2
0:0
1:86:2
-1:0
0:87:1
-1:1
0:84:1
-1:1
1:49:1
-1:1
2:43:1
0:-1
3:57:1
0:-1
15:31:1
2:-1
15:39:1
2:1
15:31:3
2:0
15:35:4
2:1
15:29:6
2:0
14:29:7
2:1
0:51:9
-1:-1
3:14:8
0:-1
0:3:8
-1:-1
3:8:7
0:-1
4:33:7
1:-1
0:6:7
-1:-1
0:3:6
-1:-1
1:0:5
-1:-1
1:1:4
-1:-1
0:2:3
-1:0
1:1:2
-1:-1
2:1:1
0:1
0:2:2
-1:-1
3:3:1
0:1
3:2:2
0:-1
3:1:2
0:-1
0:1:2
-1:-1
0:54:1
-1:1
0:58:1
-1:-1
0:53:1
-1:-1
2:89:1
0:1
0:32:2
-1:-1
0:49:1
-1:1
2:74:1
0:1
6:64:2
1:-1
0:68:2
-1:-1
0:51:1
-1:1
0:64:1
-1:1
0:68:1
-1:1
2:75:1
0:-1
1:60:1
-1:1
0:49:1
-1:1
0:74:1
-1:1
0:86:1
-1:1
0:48:1
-1:1
0:67:1
-1:1
0:45:1
-1:1
0:73:1
-1:-1
0:70:1
-1:1
0:68:1
-1:-1
1:53:1
-1:1
2:60:1
0:-1
0:49:1
-1:1
3:57:1
0:1
2:51:2
0:-1
0:60:2
-1:-1
1:71:1
-1:1
2:62:1
0:-1
2:59:1
0:-1
0:78:1
-1:-1
0:53:1
-1:1
0:54:1
-1:1
0:48:1
-1:1
0:54:1
-1:-1
0:54:1
-1:1
0:72:1
-1:1
0:59:1
-1:1
2:46:1
0:1
0:49:2
-1:-1
0:47:1
-1:1
0:60:1
-1:1
0:45:1
-1:1
0:39:1
-1:1
0:50:1
-1:-1
0:47:1
-1:1
0:41:1
-1:1
0:59:1
-1:1
2:45:1
0:1
0:59:2
-1:0
0:50:1
-1:1
2:54:1
0:-1
3:60:1
0:-1
0:58:1
-1:1
2:48:1
0:1
0:46:2
-1:-1
0:57:1
-1:1
3:55:1
0:1
2:46:2
0:-1
0:47:2
-1:0
2:54:1
0:1
0:69:2
-1:0
0:78:1
-1:1
0:91:1
-1:1
0:89:1
-1:1
0:48:1
-1:1
2:44:1
0:1
3:53:2
0:-1
15:37:2
2:1
15:38:4
2:-1
15:30:4
2:0
2:37:5
0:1
15:34:6
2:1
0:25:8
-1:0
0:53:7
-1:-1
0:34:6
-1:0
2:15:5
0:-1
0:5:5
-1:-1
2:2:4
0:0
1:1:4
-1:-1
3:0:3
0:-1
3:3:3
0:0
3:4:3
0:-1
1:2:3
-1:-1
2:3:2
0:-1
3:1:2
0:-1
3:1:2
0:-1
1:2:2
-1:-1
4:1:1
1:-1
0:24:1
-1:-1
0:49:1
-1:1
2:48:1
0:1
3:68:2
0:-1
0:80:2
-1:-1
0:30:1
-1:1
2:67:1
0:-1
0:61:1
-1:-1
0:67:1
-1:-1
0:67:1
-1:1
0:41:1
-1:1
0:77:1
-1:1
2:63:1
0:1
0:67:2
-1:-1
0:62:1
-1:-1
0:67:1
-1:1
0:85:1
-1:1
0:57:1
-1:1
2:58:1
0:1
0:62:2
-1:0
1:58:1
-1:1
0:79:1
-1:-1
0:49:1
-1:-1
0:75:1
-1:1
0:61:1
-1:-1
0:50:1
-1:1
3:55:1
0:1
0:52:2
-1:-1
0:44:1
-1:-1
0:85:1
-1:1
0:58:1
-1:1
2:54:1
0:1
0:74:2
-1:-1
0:65:1
-1:1
0:38:1
-1:1
1:65:1
-1:-1
0:48:1
-1:-1
2:58:1
0:1
0:60:2
-1:-1
0:80:1
-1:1
0:40:1
-1:-1
0:51:1
-1:-1
0:43:1
-1:1
0:42:1
-1:-1
0:57:1
-1:-1
0:49:1
-1:-1
3:44:1
0:1
0:48:2
-1:-1
4:41:1
1:1
0:46:2
-1:-1
0:59:1
-1:-1
1:43:1
-1:-1
0:52:1
-1:1
0:44:1
-1:1
2:55:1
0:1
2:59:2
0:-1
4:54:2
1:0
0:53:3
-1:-1
3:48:2
0:1
3:56:3
0:-1
0:50:3
-1:-1
0:43:2
-1:0
0:49:1
-1:1
0:56:1
-1:1
0:73:1
-1:1
0:80:1
-1:1
4:95:1
1:-1
0:80:1
-1:-1
2:41:1
0:1
3:42:2
0:-1
3:52:2
0:-1
15:35:2
2:1
15:33:4
2:0
15:33:5
2:1
15:36:7
2:1
15:28:9
2:-1
0:27:9
-1:1
0:53:9
-1:-1
0:17:8
-1:0
3:24:7
0:-1
4:15:7
1:-1
0:5:7
-1:-1
2:2:6
0:-1
2:0:6
0:-1
4:1:6
1:-1
2:3:6
0:-1
3:4:6
0:-1
2:1:6
0:-1
5:4:6
1:-1
3:3:6
0:-1
5:1:6
1:-1
0:3:6
-1:-1
2:48:5
0:-1
2:43:5
0:-1
1:55:5
-1:-1
1:77:4
-1:-1
0:52:3
-1:-1
1:42:2
-1:0
2:47:1
0:-1
0:63:1
-1:-1
2:71:1
0:1
0:53:2
-1:-1
0:48:1
-1:1
0:80:1
-1:1
0:70:1
-1:1
2:58:1
0:1
0:64:2
-1:-1
0:76:1
-1:1
2:80:1
0:1
2:50:2
0:-1
0:64:2
-1:0
0:46:1
-1:1
1:67:1
-1:-1
2:67:1
0:-1
0:46:1
-1:-1
1:79:1
-1:1
1:46:1
-1:-1
0:51:1
-1:-1
3:53:1
0:1
2:40:2
0:-1
1:53:2
-1:0
0:57:1
-1:-1
1:62:1
-1:1
2:64:1
0:-1
0:62:1
-1:-1
0:75:1
-1:1
0:47:1
-1:1
0:43:1
-1:1
2:54:1
0:1
0:41:2
-1:-1
3:57:1
0:1
0:66:2
-1:-1
1:69:1
-1:1
0:37:1
-1:-1
0:49:1
-1:1
0:41:1
-1:1
0:48:1
-1:1
0:53:1
-1:1
2:52:1
0:1
0:35:2
-1:-1
0:44:1
-1:-1
0:45:1
-1:-1
0:47:1
-1:1
0:55:1
-1:1
3:53:1
0:1
3:44:2
0:-1
3:56:2
0:-1
0:57:2
-1:-1
0:63:1
-1:1
0:59:1
-1:1
4:45:1
1:-1
0:51:1
-1:-1
0:57:1
-1:1
0:36:1
-1:-1
2:41:1
0:-1
0:44:1
-1:1
0:80:1
-1:1
2:79:1
0:1
0:68:2
-1:-1
2:88:1
0:-1
1:65:1
-1:-1
0:42:1
-1:-1
3:46:1
0:-1
7:52:1
1:-1
15:33:1
2:1
15:34:3
2:1
15:33:5
2:-1
15:31:5
2:1
2:29:7
0:1
0:26:8
-1:1
1:40:8
-1:0
2:34:7
0:-1
0:18:7
-1:-1
0:7:6
-1:-1
2:1:5
0:-1
2:4:5
0:-1
3:1:5
0:-1
3:3:5
0:-1
0:2:5
-1:-1
5:2:4
1:-1
2:4:4
0:0
3:4:4
0:-1
3:1:4
0:-1
2:4:4
0:-1
3:2:4
0:-1
7:17:4
1:-1
2:45:4
0:-1
0:50:4
-1:-1
2:59:3
0:0
0:91:3
-1:-1
1:27:2
-1:0
1:41:1
-1:-1
0:64:1
-1:-1
3:61:1
0:1
0:71:2
-1:-1
0:47:1
-1:1
2:67:1
0:1
0:70:2
-1:-1
3:72:1
0:-1
0:64:1
-1:-1
0:57:1
-1:-1
0:69:1
-1:1
0:84:1
-1:1
3:48:1
0:1
2:70:2
0:-1
1:40:2
-1:0
2:65:1
0:-1
0:62:1
-1:-1
0:72:1
-1:1
2:48:1
0:-1
3:63:1
0:-1
2:42:1
0:-1
3:51:1
0:-1
0:52:1
-1:-1
0:43:1
-1:-1
1:83:1
-1:1
0:54:1
-1:-1
2:57:1
0:1
0:74:2
-1:-1
0:49:1
-1:-1
0:50:1
-1:1
0:57:1
-1:1
0:47:1
-1:1
2:65:1
0:-1
0:54:1
-1:-1
0:72:1
-1:-1
0:47:1
-1:1
0:41:1
-1:1
2:53:1
0:1
2:37:2
0:-1
0:68:2
-1:-1
0:43:1
-1:-1
0:42:1
-1:-1
3:52:1
0:1
1:48:2
-1:0
0:32:1
-1:1
4:60:1
1:1
3:42:2
0:-1
0:48:2
-1:0
0:44:1
-1:1
0:51:1
-1:1
0:65:1
-1:1
2:56:1
0:1
2:54:2
0:1
0:49:3
-1:0
0:45:2
-1:-1
0:49:1
-1:1
0:49:1
-1:1
0:44:1
-1:1
0:44:1
-1:1
0:79:1
-1:-1
0:71:1
-1:1
0:76:1
-1:1
2:94:1
0:1
0:61:2
-1:-1
2:38:1
0:1
2:45:2
0:-1
13:46:2
2:-1
15:35:2
2:0
5:30:3
1:0
15:34:4
2:0
15:30:5
2:1
5:29:7
1:1
2:35:8
0:1
0:35:9
-1:-1
0:8:8
-1:0
0:2:7
-1:-1
2:32:6
0:-1
0:9:6
-1:-1
0:1:5
-1:-1
1:0:4
-1:-1
2:0:3
0:-1
4:3:3
1:-1
2:3:3
0:-1
2:0:3
0:-1
2:1:3
0:-1
3:2:3
0:-1
3:3:3
0:-1
0:2:3
-1:0
2:44:2
0:-1
4:48:2
1:0
0:59:3
-1:-1
2:82:2
0:1
0:55:3
-1:-1
0:36:2
-1:0
2:55:1
0:1
0:67:2
-1:-1
0:76:1
-1:1
0:53:1
-1:1
0:48:1
-1:1
0:82:1
-1:1
2:70:1
0:1
0:63:2
-1:-1
0:59:1
-1:1
0:76:1
-1:1
1:85:1
-1:1
2:48:1
0:-1
0:65:1
-1:1
0:53:1
-1:1
2:57:1
0:1
1:73:2
-1:-1
2:55:1
0:-1
0:70:1
-1:-1
0:62:1
-1:-1
0:48:1
-1:1
3:53:1
0:1
0:45:2
-1:-1
0:42:1
-1:1
0:74:1
-1:1
2:58:1
0:1
0:55:2
-1:-1
0:76:1
-1:1
0:63:1
-1:1
0:48:1
-1:1
0:56:1
-1:-1
1:46:1
-1:1
0:55:1
-1:1
2:58:1
0:1
0:64:2
-1:-1
0:54:1
-1:1
2:45:1
0:1
0:49:2
-1:-1
1:46:1
-1:1
0:58:1
-1:-1
0:45:1
-1:1
3:52:1
0:-1
0:50:1
-1:-1
0:41:1
-1:1
3:42:1
0:-1
0:66:1
-1:-1
0:40:1
-1:1
3:56:1
0:1
2:44:2
0:0
2:52:2
0:1
0:66:3
-1:-1
0:55:2
-1:0
0:52:1
-1:-1
0:50:1
-1:1
5:47:1
1:-1
3:55:1
0:-1
0:44:1
-1:-1
0:35:1
-1:1
2:51:1
0:1
0:78:2
-1:0
0:80:1
-1:1
0:84:1
-1:1
0:95:1
-1:-1
2:54:1
0:1
0:43:2
-1:-1
1:50:1
-1:1
14:39:1
2:-1
15:35:1
2:1
11:29:3
2:0
15:37:4
2:1
15:29:6
2:1
0:28:8
-1:0
0:61:7
-1:-1
3:38:6
0:0
2:17:6
0:-1
0:4:6
-1:-1
1:1:5
-1:-1
1:2:4
-1:0
4:1:3
1:-1
5:4:3
1:0
0:1:4
-1:-1
1:2:3
-1:-1
3:3:2
0:-1
3:1:2
0:-1
3:2:2
0:-1
2:2:2
0:-1
2:3:2
0:-1
3:4:2
0:-1
0:35:2
-1:-1
2:53:1
0:1
0:52:2
-1:0
2:61:1
0:-1
0:82:1
-1:1
0:29:1
-1:1
0:68:1
-1:-1
0:69:1
-1:1
0:75:1
-1:1
0:53:1
-1:1
0:48:1
-1:1
0:83:1
-1:1
2:69:1
0:1
2:62:2
0:-1
0:60:2
-1:-1
0:77:1
-1:1
0:87:1
-1:1
0:50:1
-1:1
0:61:1
-1:1
0:49:1
-1:1
0:72:1
-1:-1
0:77:1
-1:1
0:70:1
-1:1
0:55:1
-1:-1
3:66:1
0:-1
0:54:1
-1:-1
0:51:1
-1:1
0:48:1
-1:-1
0:54:1
-1:1
0:79:1
-1:1
0:67:1
-1:-1
0:55:1
-1:1
0:84:1
-1:1
0:52:1
-1:-1
0:38:1
-1:1
0:63:1
-1:1
0:45:1
-1:-1
3:60:1
0:1
0:71:2
-1:-1
0:77:1
-1:1
1:38:1
-1:-1
2:47:1
0:-1
2:44:1
0:-1
2:46:1
0:-1
0:53:1
-1:-1
2:54:1
0:1
0:44:2
-1:-1
0:45:1
-1:1
0:38:1
-1:1
2:61:1
0:1
1:46:2
-1:-1
3:52:1
0:1
3:46:2
0:-1
3:58:2
0:-1
2:58:2
0:-1
0:61:2
-1:0
4:57:1
1:1
4:49:2
1:-1
3:54:2
0:-1
0:56:2
-1:0
3:41:1
0:1
0:49:2
-1:-1
2:45:1
0:1
0:86:2
-1:-1
2:83:1
0:1
2:77:2
0:0
3:97:2
0:-1
2:57:2
0:-1
0:43:2
-1:-1
1:50:1
-1:1
15:36:1
2:-1
15:39:1
2:1
15:29:3
2:1
2:39:5
0:1
15:33:6
2:1
1:33:8
-1:1
1:53:8
-1:-1
0:15:7
-1:0
1:6:6
-1:-1
4:32:5
1:-1
0:8:5
-1:-1
3:5:4
0:0
2:1:4
0:0
4:3:4
1:-1
3:4:4
0:0
0:0:4
-1:-1
1:4:3
-1:-1
2:3:2
0:-1
1:2:2
-1:-1
3:2:1
0:1
0:0:2
-1:-1
0:2:1
-1:-1
2:57:1
0:-1
2:45:1
0:-1
3:55:1
0:-1
0:72:1
-1:1
2:56:1
0:1
0:40:2
-1:-1
0:60:1
-1:-1
0:63:1
-1:1
2:70:1
0:1
0:54:2
-1:-1
0:48:1
-1:1
0:78:1
-1:1
0:70:1
-1:-1
0:57:1
-1:1
0:66:1
-1:1
0:75:1
-1:1
0:86:1
-1:1
2:49:1
0:1
0:65:2
-1:0
0:54:1
-1:-1
2:71:1
0:1
0:72:2
-1:-1
0:73:1
-1:1
0:55:1
-1:-1
0:62:1
-1:1
0:53:1
-1:-1
0:48:1
-1:1
0:57:1
-1:1
1:44:1
-1:1
0:81:1
-1:-1
1:59:1
-1:-1
0:51:1
-1:-1
0:70:1
-1:-1
0:65:1
-1:1
1:39:1
-1:-1
0:59:1
-1:-1
0:41:1
-1:-1
0:65:1
-1:-1
0:62:1
-1:1
0:67:1
-1:1
0:57:1
-1:1
2:51:1
0:-1
0:39:1
-1:-1
0:43:1
-1:-1
0:58:1
-1:1
0:54:1
-1:-1
0:39:1
-1:1
0:46:1
-1:1
3:37:1
0:1
0:51:2
-1:0
0:58:1
-1:1
0:39:1
-1:1
1:50:1
-1:1
0:46:1
-1:-1
0:54:1
-1:-1
3:63:1
0:1
0:57:2
-1:0
0:52:1
-1:-1
0:42:1
-1:1
3:58:1
0:1
3:53:2
0:-1
2:46:2
0:-1
2:44:2
0:0
0:46:2
-1:-1
0:78:1
-1:-1
0:88:1
-1:1
0:74:1
-1:-1
2:94:1
0:1
0:49:2
-1:-1
2:44:1
0:1
0:45:2
-1:-1
0:46:1
-1:1
15:41:1
2:1
15:30:3
2:1
4:38:5
1:1
15:29:6
2:0
0:34:7
-1:1
1:45:7
-1:-1
2:34:6
0:-1
0:19:6
-1:-1
Finished CPU 0 instructions: 10000000 cycles: 23954414 cumulative IPC: 0.41746 (Simulation time: 0 hr 0 min 51 sec) 

CPU 0 Branch Prediction Accuracy: 99.3802% MPKI: 1.5948 Average ROB Occupancy at Mispredict: 165.225

ChampSim completed all CPUs

Region of Interest Statistics

CPU 0 cumulative IPC: 0.41746 instructions: 10000000 cycles: 23954414
L1D TOTAL     ACCESS:    3565460  HIT:    2957636  MISS:     607824
L1D LOAD      ACCESS:    1717370  HIT:    1382917  MISS:     334453
L1D RFO       ACCESS:     715014  HIT:     702638  MISS:      12376
L1D PREFETCH  ACCESS:    1133076  HIT:     872081  MISS:     260995
L1D WRITEBACK ACCESS:          0  HIT:          0  MISS:          0
L1D PREFETCH  REQUESTED:    1415261  ISSUED:    1388855  USEFUL:      83200  USELESS:     206439
L1D AVERAGE MISS LATENCY: 425591 cycles
L1I TOTAL     ACCESS:    3842438  HIT:    3815380  MISS:      27058
L1I LOAD      ACCESS:    3842438  HIT:    3815380  MISS:      27058
L1I RFO       ACCESS:          0  HIT:          0  MISS:          0
L1I PREFETCH  ACCESS:          0  HIT:          0  MISS:          0
L1I WRITEBACK ACCESS:          0  HIT:          0  MISS:          0
L1I PREFETCH  REQUESTED:          0  ISSUED:          0  USEFUL:          0  USELESS:          0
L1I AVERAGE MISS LATENCY: 13.0035 cycles
L2C TOTAL     ACCESS:    1035046  HIT:     825507  MISS:     209539
L2C LOAD      ACCESS:     342595  HIT:     260383  MISS:      82212
L2C RFO       ACCESS:      12334  HIT:       1924  MISS:      10410
L2C PREFETCH  ACCESS:     658404  HIT:     541487  MISS:     116917
L2C WRITEBACK ACCESS:      21713  HIT:      21713  MISS:          0
L2C PREFETCH  REQUESTED:     680470  ISSUED:     670408  USEFUL:       6464  USELESS:     120600
L2C AVERAGE MISS LATENCY: 43.6452 cycles
LLC TOTAL     ACCESS:     226103  HIT:     207725  MISS:      18378
LLC LOAD      ACCESS:      81502  HIT:      79257  MISS:       2245
LLC RFO       ACCESS:      10409  HIT:        755  MISS:       9654
LLC PREFETCH  ACCESS:     117628  HIT:     111152  MISS:       6476
LLC WRITEBACK ACCESS:      16564  HIT:      16561  MISS:          3
LLC PREFETCH  REQUESTED:          0  ISSUED:          0  USEFUL:        804  USELESS:        244
LLC AVERAGE MISS LATENCY: 128.322 cycles
Major fault: 0 Minor fault: 2374
CPU 0 L2C next line prefetcher final stats

DRAM Statistics
 CHANNEL 0
 RQ ROW_BUFFER_HIT:      10499  ROW_BUFFER_MISS:       7876
 DBUS_CONGESTED:       8303
 WQ ROW_BUFFER_HIT:         53  ROW_BUFFER_MISS:        391  FULL:          0

 AVG_CONGESTED_CYCLE: 5
