
*** ChampSim Multicore Out-of-Order Simulator ***

Warmup Instructions: 1000000
Simulation Instructions: 10000000
Number of CPUs: 1
LLC sets: 2048
LLC ways: 16
Off-chip DRAM Size: 4096 MB Channels: 1 Width: 64-bit Data Rate: 3200 MT/s

CPU 0 runs /home/light/7th-Sem/cs622/project/ChampSim/dpc3_traces/625.x264_s-18B.champsimtrace.xz
0:25:4
-1:-1
1:7:3
-1:0
11:6:2
2:-1
0:24:2
-1:-1
1:16:1
-1:-1
0:5:1
-1:-1
0:1:1
-1:1
5:1:1
1:-1
1:1:1
-1:-1
0:1:1
-1:-1
0:1:1
-1:-1
0:0:1
-1:-1
0:1:1
-1:-1
0:0:1
-1:-1
1:0:1
-1:-1
0:1:1
-1:-1
0:1:1
-1:-1
0:0:1
-1:-1
6:0:1
1:-1
0:0:1
-1:-1
0:0:1
-1:-1
1:0:1
-1:-1
0:0:1
-1:-1
0:1:1
-1:-1
2:0:1
0:-1
1:0:1
-1:-1
4:1:1
1:-1
0:0:1
-1:-1
0:0:1
-1:-1
3:0:1
0:-1
0:0:1
-1:-1
0:1:1
-1:-1
0:1:1
-1:-1
0:0:1
-1:-1
0:4:1
-1:-1
0:1:1
-1:-1
0:5:1
-1:-1
0:0:1
-1:-1
1:1:1
-1:-1
0:6:1
-1:1
0:1:1
-1:-1
1:0:1
-1:-1
0:1:1
-1:-1
0:0:1
-1:-1
0:0:1
-1:-1
0:0:1
-1:-1
3:0:1
0:-1
1:0:1
-1:-1
0:0:1
-1:-1
0:0:1
-1:-1
0:3:1
-1:-1
0:0:1
-1:-1
0:0:1
-1:-1
0:0:1
-1:-1
1:0:1
-1:-1
0:0:1
-1:-1
2:0:1
0:-1
0:1:1
-1:1
1:1:1
-1:-1
0:1:1
-1:-1
0:0:1
-1:-1
0:0:1
-1:-1
0:0:1
-1:-1
3:0:1
0:-1
0:0:1
-1:-1
5:0:1
1:-1
0:0:1
-1:-1
0:0:1
-1:-1
5:0:1
1:-1
0:0:1
-1:-1
0:0:1
-1:-1
0:0:1
-1:-1
0:0:1
-1:-1
0:0:1
-1:-1
0:1:1
-1:-1
1:0:1
-1:-1
0:0:1
-1:-1
0:0:1
-1:-1
0:2:1
-1:-1
4:1:1
1:1
0:1:2
-1:-1
0:1:1
-1:-1
0:0:1
-1:-1
0:0:1
-1:-1
0:0:1
-1:-1
0:1:1
-1:-1
3:0:1
0:-1
0:0:1
-1:-1
0:1:1
-1:-1
0:0:1
-1:-1
0:0:1
-1:-1
0:1:1
-1:-1
5:1:1
1:-1
0:0:1
-1:-1
1:0:1
-1:-1
0:2:1
-1:-1
0:0:1
-1:-1
0:0:1
-1:-1
0:8:1
-1:-1
0:1:1
-1:-1
0:0:1
-1:-1
0:1:1
-1:-1
3:6:1
0:-1
0:2:1
-1:-1
2:0:1
0:-1
0:0:1
-1:-1
2:1:1
0:-1

Warmup complete CPU 0 instructions: 1000004 cycles: 385619 (Simulation time: 0 hr 0 min 2 sec) 

0:1:1
-1:-1
3:0:1
0:-1
0:0:1
-1:-1
0:1:1
-1:-1
0:0:1
-1:-1
0:0:1
-1:-1
3:0:1
0:-1
0:0:1
-1:-1
1:1:1
-1:-1
0:1:1
-1:-1
0:0:1
-1:-1
0:3:1
-1:-1
0:1:1
-1:-1
1:0:1
-1:-1
0:0:1
-1:-1
0:0:1
-1:-1
0:0:1
-1:-1
4:2:1
1:-1
0:1:1
-1:-1
0:0:1
-1:-1
4:0:1
1:-1
0:1:1
-1:-1
0:5:1
-1:-1
0:0:1
-1:-1
0:0:1
-1:-1
0:0:1
-1:-1
0:2:1
-1:-1
0:0:1
-1:-1
0:0:1
-1:-1
0:0:1
-1:-1
0:0:1
-1:-1
0:1:1
-1:-1
0:1:1
-1:-1
2:0:1
0:-1
0:0:1
-1:-1
0:0:1
-1:-1
0:1:1
-1:-1
0:1:1
-1:-1
0:2:1
-1:-1
0:0:1
-1:-1
0:6:1
-1:-1
0:7:1
-1:-1
0:7:1
-1:-1
0:3:1
-1:-1
0:3:1
-1:-1
4:6:1
1:-1
0:0:1
-1:-1
0:2:1
-1:-1
0:6:1
-1:-1
0:7:1
-1:-1
0:0:1
-1:-1
7:0:1
1:-1
0:1:1
-1:-1
3:3:1
0:-1
2:4:1
0:-1
4:1:1
1:-1
6:2:1
1:1
0:0:2
-1:-1
0:3:1
-1:-1
0:1:1
-1:-1
0:0:1
-1:-1
0:1:1
-1:-1
1:1:1
-1:-1
0:0:1
-1:-1
0:1:1
-1:-1
0:0:1
-1:-1
0:3:1
-1:-1
0:2:1
-1:-1
3:0:1
0:-1
0:0:1
-1:-1
0:1:1
-1:-1
2:2:1
0:-1
0:1:1
-1:-1
1:0:1
-1:-1
0:3:1
-1:-1
0:4:1
-1:-1
2:0:1
0:-1
0:0:1
-1:-1
0:1:1
-1:-1
0:5:1
-1:-1
0:0:1
-1:-1
0:0:1
-1:-1
0:0:1
-1:-1
0:6:1
-1:-1
0:2:1
-1:-1
1:1:1
-1:-1
0:3:1
-1:1
2:0:1
0:-1
0:3:1
-1:-1
0:1:1
-1:-1
0:0:1
-1:-1
2:0:1
0:-1
0:2:1
-1:-1
0:3:1
-1:1
1:0:1
-1:-1
1:8:1
-1:-1
0:0:1
-1:-1
0:1:1
-1:-1
1:1:1
-1:-1
0:1:1
-1:-1
0:2:1
-1:1
0:3:1
-1:-1
4:1:1
1:-1
0:2:1
-1:-1
0:2:1
-1:-1
0:4:1
-1:1
1:1:1
-1:-1
4:2:1
1:1
0:1:2
-1:0
0:3:1
-1:-1
0:0:1
-1:-1
0:1:1
-1:-1
0:5:1
-1:-1
0:1:1
-1:-1
0:1:1
-1:-1
0:2:1
-1:1
0:1:1
-1:-1
0:0:1
-1:-1
0:4:1
-1:-1
0:7:1
-1:-1
0:1:1
-1:-1
0:9:1
-1:-1
1:0:1
-1:-1
0:5:1
-1:-1
0:5:1
-1:-1
1:1:1
-1:-1
0:1:1
-1:-1
0:7:1
-1:-1
0:1:1
-1:-1
0:0:1
-1:-1
3:5:1
0:-1
4:0:1
1:-1
0:1:1
-1:-1
0:1:1
-1:-1
0:2:1
-1:-1
1:1:1
-1:-1
0:1:1
-1:1
0:0:1
-1:-1
0:1:1
-1:-1
3:2:1
0:1
0:1:2
-1:-1
0:2:1
-1:-1
0:0:1
-1:-1
1:0:1
-1:-1
0:1:1
-1:-1
0:7:1
-1:-1
4:4:1
1:-1
0:1:1
-1:-1
0:3:1
-1:-1
5:1:1
1:-1
0:4:1
-1:-1
0:14:1
-1:-1
0:2:1
-1:-1
0:0:1
-1:-1
0:1:1
-1:-1
0:1:1
-1:-1
0:1:1
-1:-1
0:8:1
-1:-1
0:14:1
-1:1
0:2:1
-1:-1
3:0:1
0:-1
0:0:1
-1:-1
0:9:1
-1:-1
3:2:1
0:-1
0:4:1
-1:-1
2:1:1
0:-1
0:8:1
-1:-1
0:1:1
-1:-1
0:1:1
-1:-1
2:9:1
0:1
0:1:2
-1:0
0:0:1
-1:-1
0:0:1
-1:-1
0:1:1
-1:-1
0:1:1
-1:-1
0:0:1
-1:-1
0:2:1
-1:-1
0:0:1
-1:-1
0:0:1
-1:-1
0:2:1
-1:-1
0:0:1
-1:-1
0:2:1
-1:-1
0:1:1
-1:-1
1:1:1
-1:-1
1:0:1
-1:-1
0:7:1
-1:-1
0:0:1
-1:-1
1:1:1
-1:-1
0:2:1
-1:-1
0:1:1
-1:-1
2:1:1
0:-1
0:0:1
-1:-1
0:0:1
-1:-1
0:4:1
-1:-1
0:0:1
-1:-1
0:1:1
-1:-1
0:1:1
-1:-1
0:3:1
-1:-1
0:7:1
-1:-1
0:14:1
-1:-1
0:0:1
-1:-1
0:1:1
-1:-1
1:8:1
-1:-1
0:4:1
-1:-1
0:7:1
-1:-1
2:0:1
0:-1
0:3:1
-1:-1
2:1:1
0:-1
0:4:1
-1:-1
8:5:1
2:-1
0:4:1
-1:-1
0:1:1
-1:-1
0:0:1
-1:-1
0:1:1
-1:-1
0:1:1
-1:-1
2:1:1
0:-1
0:1:1
-1:-1
0:0:1
-1:-1
0:3:1
-1:-1
0:3:1
-1:-1
1:0:1
-1:-1
0:1:1
-1:-1
0:1:1
-1:-1
0:0:1
-1:-1
0:5:1
-1:-1
1:0:1
-1:-1
0:5:1
-1:-1
0:4:1
-1:-1
1:0:1
-1:-1
0:0:1
-1:-1
0:1:1
-1:-1
0:4:1
-1:-1
0:1:1
-1:-1
0:1:1
-1:-1
0:2:1
-1:1
0:0:1
-1:-1
0:0:1
-1:-1
0:1:1
-1:-1
0:0:1
-1:-1
4:4:1
1:-1
0:0:1
-1:-1
0:2:1
-1:-1
0:1:1
-1:1
0:1:1
-1:-1
0:3:1
-1:1
0:0:1
-1:-1
4:0:1
1:-1
0:1:1
-1:-1
2:1:1
0:-1
0:4:1
-1:-1
0:5:1
-1:-1
3:4:1
0:-1
2:4:1
0:-1
0:4:1
-1:1
0:0:1
-1:-1
0:8:1
-1:-1
0:2:1
-1:1
0:2:1
-1:1
0:3:1
-1:-1
2:2:1
0:1
0:1:2
-1:0
0:1:1
-1:-1
0:10:1
-1:-1
4:1:1
1:-1
0:2:1
-1:-1
0:0:1
-1:-1
1:3:1
-1:-1
0:4:1
-1:-1
4:3:1
1:-1
0:0:1
-1:-1
0:4:1
-1:-1
0:7:1
-1:-1
0:1:1
-1:-1
4:5:1
1:-1
5:1:1
1:-1
2:1:1
0:-1
0:2:1
-1:-1
0:0:1
-1:-1
1:1:1
-1:-1
2:1:1
0:-1
0:1:1
-1:-1
0:4:1
-1:-1
0:1:1
-1:-1
0:0:1
-1:-1
0:7:1
-1:-1
0:1:1
-1:-1
0:0:1
-1:-1
0:0:1
-1:-1
0:1:1
-1:-1
0:1:1
-1:-1
2:0:1
0:-1
1:1:1
-1:-1
0:0:1
-1:-1
0:9:1
-1:-1
0:0:1
-1:-1
0:7:1
-1:-1
0:0:1
-1:-1
0:1:1
-1:-1
4:0:1
1:-1
0:3:1
-1:-1
0:1:1
-1:-1
0:2:1
-1:-1
0:1:1
-1:-1
0:1:1
-1:-1
0:0:1
-1:-1
0:2:1
-1:-1
0:1:1
-1:-1
2:0:1
0:-1
1:4:1
-1:-1
0:0:1
-1:-1
0:1:1
-1:-1
0:2:1
-1:-1
0:0:1
-1:-1
0:0:1
-1:-1
7:0:1
1:-1
0:5:1
-1:-1
0:1:1
-1:1
0:1:1
-1:-1
0:2:1
-1:1
1:4:1
-1:1
0:1:1
-1:-1
0:3:1
-1:-1
0:1:1
-1:-1
0:2:1
-1:1
0:8:1
-1:-1
0:1:1
-1:-1
0:2:1
-1:-1
0:1:1
-1:-1
2:0:1
0:-1
0:0:1
-1:-1
0:3:1
-1:-1
0:1:1
-1:-1
0:0:1
-1:-1
0:1:1
-1:-1
0:2:1
-1:-1
0:0:1
-1:-1
0:5:1
-1:-1
0:0:1
-1:-1
1:1:1
-1:-1
0:0:1
-1:-1
0:1:1
-1:-1
5:2:1
1:-1
0:0:1
-1:-1
0:0:1
-1:-1
0:0:1
-1:-1
0:1:1
-1:-1
0:0:1
-1:-1
0:5:1
-1:-1
0:7:1
-1:-1
0:15:1
-1:-1
0:0:1
-1:-1
0:1:1
-1:-1
0:9:1
-1:-1
0:0:1
-1:-1
0:6:1
-1:-1
0:7:1
-1:-1
0:1:1
-1:-1
0:4:1
-1:-1
3:7:1
0:-1
0:0:1
-1:-1
0:4:1
-1:-1
0:1:1
-1:-1
0:2:1
-1:-1
8:1:1
2:-1
0:1:1
-1:-1
10:1:1
2:-1
0:1:1
-1:-1
0:0:1
-1:-1
0:0:1
-1:-1
0:1:1
-1:-1
0:1:1
-1:-1
0:3:1
-1:-1
0:2:1
-1:-1
3:0:1
0:-1
0:0:1
-1:-1
0:1:1
-1:-1
0:4:1
-1:-1
0:1:1
-1:-1
0:1:1
-1:-1
0:1:1
-1:1
0:4:1
-1:-1
0:5:1
-1:-1
1:0:1
-1:-1
0:0:1
-1:-1
0:1:1
-1:-1
0:5:1
-1:-1
0:0:1
-1:-1
0:0:1
-1:-1
0:1:1
-1:-1
0:4:1
-1:1
0:1:1
-1:-1
0:1:1
-1:-1
1:1:1
-1:-1
4:1:1
1:-1
0:1:1
-1:-1
0:4:1
-1:-1
6:0:1
1:-1
0:3:1
-1:-1
0:0:1
-1:-1
0:12:1
-1:-1
5:0:1
1:-1
2:6:1
0:-1
0:3:1
-1:1
0:1:1
-1:-1
4:7:1
1:-1
1:4:1
-1:-1
0:2:1
-1:1
3:0:1
0:-1
0:0:1
-1:-1
0:0:1
-1:-1
0:0:1
-1:-1
0:5:1
-1:-1
0:3:1
-1:-1
0:5:1
-1:-1
0:2:1
-1:1
0:0:1
-1:-1
0:0:1
-1:-1
2:0:1
0:-1
0:0:1
-1:-1
0:0:1
-1:-1
0:1:1
-1:-1
0:0:1
-1:-1
0:3:1
-1:-1
3:3:1
0:-1
1:1:1
-1:-1
3:0:1
0:-1
0:2:1
-1:-1
0:2:1
-1:-1
0:0:1
-1:-1
1:6:1
-1:-1
0:2:1
-1:-1
1:1:1
-1:-1
0:0:1
-1:-1
0:0:1
-1:-1
0:0:1
-1:-1
0:13:1
-1:-1
0:4:1
-1:-1
0:4:1
-1:-1
0:1:1
-1:-1
0:6:1
-1:-1
0:8:1
-1:-1
3:1:1
0:-1
0:6:1
-1:1
0:5:1
-1:1
0:0:1
-1:-1
0:0:1
-1:-1
0:1:1
-1:-1
0:1:1
-1:-1
0:2:1
-1:-1
0:4:1
-1:1
0:3:1
-1:-1
0:0:1
-1:-1
2:0:1
0:-1
0:2:1
-1:-1
0:0:1
-1:-1
3:2:1
0:-1
0:1:1
-1:-1
0:0:1
-1:-1
0:11:1
-1:-1
0:1:1
-1:-1
0:2:1
-1:-1
5:3:1
1:-1
0:0:1
-1:-1
3:1:1
0:-1
0:0:1
-1:-1
4:2:1
1:-1
0:2:1
-1:1
1:1:1
-1:-1
0:1:1
-1:1
0:0:1
-1:-1
0:1:1
-1:-1
0:2:1
-1:1
2:0:1
0:-1
0:1:1
-1:-1
0:3:1
-1:-1
5:1:1
1:-1
0:0:1
-1:-1
0:1:1
-1:-1
3:2:1
0:-1
0:1:1
-1:-1
1:1:1
-1:1
0:5:1
-1:-1
0:3:1
-1:-1
0:1:1
-1:-1
0:1:1
-1:-1
0:0:1
-1:-1
0:3:1
-1:-1
0:1:1
-1:-1
0:0:1
-1:-1
0:0:1
-1:-1
0:1:1
-1:-1
1:1:1
-1:-1
0:5:1
-1:-1
0:7:1
-1:-1
0:14:1
-1:-1
0:0:1
-1:-1
0:1:1
-1:-1
0:9:1
-1:-1
0:1:1
-1:-1
2:2:1
0:-1
1:2:1
-1:-1
0:1:1
-1:-1
0:2:1
-1:1
0:3:1
-1:1
0:7:1
-1:-1
0:7:1
-1:-1
2:0:1
0:-1
0:4:1
-1:-1
5:6:1
1:-1
2:1:1
0:-1
6:4:1
1:-1
0:3:1
-1:-1
0:1:1
-1:-1
0:0:1
-1:-1
0:0:1
-1:-1
0:1:1
-1:-1
2:0:1
0:-1
0:6:1
-1:-1
0:4:1
-1:-1
2:0:1
0:-1
0:0:1
-1:-1
0:1:1
-1:-1
1:6:1
-1:-1
1:1:1
-1:-1
0:4:1
-1:-1
0:5:1
-1:-1
0:0:1
-1:-1
0:0:1
-1:-1
0:1:1
-1:-1
0:4:1
-1:-1
0:1:1
-1:-1
0:1:1
-1:-1
0:0:1
-1:-1
0:0:1
-1:-1
0:1:1
-1:-1
0:0:1
-1:-1
0:0:1
-1:-1
0:5:1
-1:-1
0:8:1
-1:-1
0:0:1
-1:-1
0:0:1
-1:-1
0:1:1
-1:-1
0:5:1
-1:1
3:0:1
0:-1
5:11:1
1:-1
1:2:1
-1:-1
0:2:1
-1:-1
0:3:1
-1:-1
0:2:1
-1:-1
1:3:1
-1:-1
1:0:1
-1:-1
0:0:1
-1:-1
0:7:1
-1:-1
0:6:1
-1:-1
0:3:1
-1:-1
2:0:1
0:-1
4:0:1
1:-1
0:0:1
-1:-1
0:1:1
-1:-1
0:1:1
-1:-1
0:0:1
-1:-1
2:0:1
0:-1
4:0:1
1:-1
0:1:1
-1:-1
0:2:1
-1:1
1:1:1
-1:-1
0:2:1
-1:1
0:0:1
-1:-1
1:0:1
-1:-1
2:0:1
0:-1
5:4:1
1:-1
1:2:1
-1:-1
0:3:1
-1:-1
0:5:1
-1:-1
0:0:1
-1:-1
1:0:1
-1:-1
3:0:1
0:-1
0:0:1
-1:-1
5:4:1
1:-1
0:5:1
-1:-1
0:3:1
-1:-1
0:6:1
-1:-1
0:3:1
-1:-1
0:1:1
-1:-1
1:1:1
-1:-1
0:0:1
-1:-1
0:0:1
-1:-1
0:0:1
-1:-1
0:0:1
-1:-1
1:1:1
-1:-1
2:1:1
0:-1
0:0:1
-1:-1
0:0:1
-1:-1
0:1:1
-1:-1
0:1:1
-1:-1
0:1:1
-1:-1
0:1:1
-1:-1
0:5:1
-1:1
0:5:1
-1:1
0:0:1
-1:-1
2:0:1
0:-1
0:0:1
-1:-1
0:0:1
-1:-1
1:2:1
-1:-1
0:1:1
-1:-1
0:1:1
-1:-1
1:0:1
-1:-1
0:2:1
-1:-1
0:0:1
-1:-1
1:0:1
-1:-1
0:0:1
-1:-1
0:0:1
-1:-1
1:2:1
-1:-1
0:0:1
-1:-1
0:0:1
-1:-1
10:0:1
2:-1
0:0:1
-1:-1
0:0:1
-1:-1
0:2:1
-1:-1
0:0:1
-1:-1
0:1:1
-1:-1
0:0:1
-1:-1
0:1:1
-1:-1
1:1:1
-1:-1
0:1:1
-1:-1
0:1:1
-1:-1
0:1:1
-1:-1
1:0:1
-1:-1
0:5:1
-1:-1
0:0:1
-1:-1
0:1:1
-1:-1
0:1:1
-1:-1
1:1:1
-1:-1
0:0:1
-1:-1
0:0:1
-1:-1
1:1:1
-1:-1
0:5:1
-1:-1
0:6:1
-1:-1
0:14:1
-1:-1
0:0:1
-1:-1
0:1:1
-1:-1
0:8:1
-1:-1
1:1:1
-1:-1
0:4:1
-1:-1
0:6:1
-1:-1
6:1:1
1:-1
0:4:1
-1:-1
4:6:1
1:-1
4:1:1
1:-1
2:2:1
0:-1
0:4:1
-1:-1
0:2:1
-1:-1
0:2:1
-1:1
8:1:1
2:-1
0:1:1
-1:-1
0:3:1
-1:-1
0:0:1
-1:-1
0:0:1
-1:-1
0:0:1
-1:-1
0:6:1
-1:-1
4:6:1
1:-1
0:1:1
-1:-1
0:2:1
-1:1
0:0:1
-1:-1
0:1:1
-1:-1
0:8:1
-1:-1
0:1:1
-1:-1
0:3:1
-1:-1
0:6:1
-1:-1
5:0:1
1:-1
0:0:1
-1:-1
0:1:1
-1:-1
3:4:1
0:-1
0:0:1
-1:-1
0:0:1
-1:-1
5:1:1
1:-1
0:0:1
-1:-1
2:0:1
0:-1
0:4:1
-1:-1
2:0:1
0:-1
2:0:1
0:-1
0:1:1
-1:-1
0:7:1
-1:1
2:2:1
0:-1
0:9:1
-1:-1
0:3:1
-1:-1
0:4:1
-1:-1
0:5:1
-1:-1
13:7:1
2:-1
0:3:1
-1:-1
0:12:1
-1:-1
0:1:1
-1:-1
0:9:1
-1:-1
0:3:1
-1:-1
0:0:1
-1:-1
4:1:1
1:-1
0:0:1
-1:-1
0:1:1
-1:-1
2:1:1
0:1
0:1:2
-1:-1
0:5:1
-1:-1
0:3:1
-1:1
0:0:1
-1:-1
0:1:1
-1:-1
0:1:1
-1:1
0:1:1
-1:-1
0:0:1
-1:-1
0:0:1
-1:-1
0:0:1
-1:-1
2:11:1
0:-1
0:0:1
-1:-1
0:4:1
-1:-1
1:1:1
-1:-1
0:8:1
-1:-1
0:1:1
-1:-1
1:0:1
-1:-1
1:0:1
-1:-1
1:0:1
-1:-1
0:0:1
-1:-1
0:7:1
-1:-1
0:1:1
-1:-1
0:0:1
-1:-1
0:1:1
-1:-1
0:0:1
-1:-1
0:0:1
-1:-1
0:0:1
-1:-1
0:0:1
-1:-1
0:0:1
-1:-1
4:1:1
1:-1
1:0:1
-1:-1
0:0:1
-1:-1
0:1:1
-1:-1
1:3:1
-1:-1
0:1:1
-1:-1
0:0:1
-1:-1
0:2:1
-1:-1
0:5:1
-1:1
0:4:1
-1:-1
5:0:1
1:-1
0:0:1
-1:-1
0:1:1
-1:-1
1:2:1
-1:-1
0:2:1
-1:-1
0:0:1
-1:-1
0:0:1
-1:-1
0:0:1
-1:-1
0:1:1
-1:-1
0:2:1
-1:-1
0:0:1
-1:-1
0:0:1
-1:-1
0:1:1
-1:-1
1:1:1
-1:-1
0:1:1
-1:-1
0:1:1
-1:-1
0:1:1
-1:-1
5:0:1
1:-1
0:0:1
-1:-1
0:1:1
-1:-1
1:2:1
-1:-1
0:6:1
-1:-1
0:2:1
-1:-1
0:1:1
-1:-1
0:1:1
-1:-1
0:1:1
-1:-1
0:1:1
-1:-1
0:1:1
-1:-1
0:0:1
-1:-1
0:0:1
-1:-1
0:1:1
-1:-1
0:5:1
-1:-1
0:7:1
-1:-1
0:14:1
-1:-1
0:0:1
-1:-1
0:1:1
-1:-1
0:8:1
-1:-1
0:2:1
-1:1
0:1:1
-1:-1
1:1:1
-1:-1
0:4:1
-1:-1
0:6:1
-1:-1
2:0:1
0:-1
0:3:1
-1:-1
3:7:1
0:-1
4:0:1
1:-1
0:6:1
-1:-1
0:5:1
-1:-1
0:1:1
-1:-1
0:3:1
-1:1
0:1:1
-1:-1
0:0:1
-1:-1
0:0:1
-1:-1
0:1:1
-1:-1
0:2:1
-1:-1
3:1:1
0:-1
0:8:1
-1:-1
0:4:1
-1:-1
4:0:1
1:-1
0:0:1
-1:-1
0:1:1
-1:-1
1:6:1
-1:-1
0:4:1
-1:-1
0:7:1
-1:-1
1:0:1
-1:-1
0:0:1
-1:-1
0:1:1
-1:-1
0:4:1
-1:-1
0:2:1
-1:-1
0:0:1
-1:-1
0:1:1
-1:-1
0:1:1
-1:-1
0:1:1
-1:-1
1:0:1
-1:-1
3:0:1
0:-1
0:0:1
-1:-1
2:1:1
0:-1
4:2:1
1:-1
0:6:1
-1:-1
0:1:1
-1:-1
3:0:1
0:-1
0:6:1
-1:-1
0:4:1
-1:-1
0:0:1
-1:-1
0:0:1
-1:-1
0:2:1
-1:-1
3:0:1
0:-1
0:0:1
-1:-1
0:0:1
-1:-1
0:4:1
-1:-1
0:3:1
-1:1
0:0:1
-1:-1
0:0:1
-1:-1
0:0:1
-1:-1
0:0:1
-1:-1
4:7:1
1:-1
0:2:1
-1:1
0:0:1
-1:-1
2:0:1
0:-1
0:0:1
-1:-1
0:0:1
-1:-1
0:1:1
-1:-1
0:2:1
-1:1
0:3:1
-1:1
0:1:1
-1:-1
0:1:1
-1:-1
2:6:1
0:1
0:1:2
-1:0
0:1:1
-1:-1
0:1:1
-1:-1
0:0:1
-1:-1
0:6:1
-1:-1
4:11:1
1:-1
0:0:1
-1:-1
0:0:1
-1:-1
0:0:1
-1:-1
2:1:1
0:-1
1:1:1
-1:-1
0:1:1
-1:-1
3:9:1
0:1
0:9:2
-1:-1
0:3:1
-1:-1
2:1:1
0:-1
3:1:1
0:-1
0:0:1
-1:-1
0:0:1
-1:-1
0:2:1
-1:-1
1:0:1
-1:-1
2:2:1
0:-1
1:0:1
-1:-1
3:2:1
0:-1
0:1:1
-1:1
0:1:1
-1:-1
0:1:1
-1:-1
1:0:1
-1:-1
0:0:1
-1:-1
0:0:1
-1:-1
0:1:1
-1:-1
0:1:1
-1:-1
0:4:1
-1:-1
0:0:1
-1:-1
0:3:1
-1:-1
0:1:1
-1:-1
0:1:1
-1:-1
0:0:1
-1:-1
0:1:1
-1:-1
0:4:1
-1:-1
0:1:1
-1:-1
0:2:1
-1:1
1:1:1
-1:-1
0:1:1
-1:-1
0:0:1
-1:-1
1:1:1
-1:-1
0:0:1
-1:-1
0:1:1
-1:-1
3:1:1
0:-1
0:0:1
-1:-1
0:2:1
-1:-1
1:1:1
-1:-1
0:0:1
-1:-1
0:0:1
-1:-1
0:3:1
-1:-1
0:1:1
-1:-1
3:1:1
0:-1
0:0:1
-1:-1
0:1:1
-1:-1
2:1:1
0:-1
0:0:1
-1:-1
0:6:1
-1:-1
0:2:1
-1:-1
0:1:1
-1:-1
0:1:1
-1:-1
0:3:1
-1:-1
Heartbeat CPU 0 instructions: 10000003 cycles: 6945833 heartbeat IPC: 1.43971 cumulative IPC: 1.37191 (Simulation time: 0 hr 0 min 25 sec) 
0:2:1
-1:-1
0:4:1
-1:-1
4:3:1
1:-1
0:1:1
-1:-1
0:2:1
-1:1
0:1:1
-1:-1
0:7:1
-1:-1
0:7:1
-1:-1
0:14:1
-1:-1
0:0:1
-1:-1
0:0:1
-1:-1
0:8:1
-1:-1
1:1:1
-1:-1
0:5:1
-1:-1
0:6:1
-1:-1
0:0:1
-1:-1
2:4:1
0:-1
4:3:1
1:-1
2:2:1
0:-1
0:4:1
-1:-1
0:2:1
-1:-1
0:2:1
-1:-1
4:1:1
1:-1
0:0:1
-1:-1
0:0:1
-1:-1
0:1:1
-1:-1
1:1:1
-1:-1
1:1:1
-1:-1
1:7:1
-1:-1
0:5:1
-1:-1
1:1:1
-1:-1
0:2:1
-1:-1
0:0:1
-1:-1
0:8:1
-1:-1
1:1:1
-1:-1
1:1:1
-1:-1
0:4:1
-1:-1
0:6:1
-1:-1
0:1:1
-1:-1
0:1:1
-1:-1
0:0:1
-1:-1
0:7:1
-1:-1
0:1:1
-1:-1
0:2:1
-1:1
1:2:1
-1:1
0:1:1
-1:-1
0:1:1
-1:1
0:0:1
-1:-1
0:0:1
-1:-1
0:0:1
-1:-1
0:1:1
-1:-1
0:2:1
-1:-1
0:5:1
-1:-1
1:2:1
-1:-1
0:1:1
-1:-1
1:3:1
-1:-1
0:2:1
-1:-1
0:1:1
-1:-1
0:0:1
-1:-1
0:5:1
-1:-1
0:18:1
-1:1
1:1:1
-1:1
0:0:1
-1:-1
2:0:1
0:-1
0:0:1
-1:-1
0:1:1
-1:-1
2:0:1
0:-1
0:2:1
-1:-1
0:12:1
-1:1
0:1:1
-1:1
0:3:1
-1:-1
2:2:1
0:1
0:7:2
-1:0
0:1:1
-1:-1
0:0:1
-1:-1
1:6:1
-1:-1
0:0:1
-1:-1
0:5:1
-1:-1
0:7:1
-1:-1
0:6:1
-1:-1
4:0:1
1:-1
0:3:1
-1:-1
0:4:1
-1:-1
0:0:1
-1:-1
0:1:1
-1:-1
0:0:1
-1:-1
0:0:1
-1:-1
0:0:1
-1:-1
0:0:1
-1:-1
0:1:1
-1:-1
0:0:1
-1:-1
0:1:1
-1:-1
0:3:1
-1:-1
0:0:1
-1:-1
1:0:1
-1:-1
0:1:1
-1:-1
0:0:1
-1:-1
0:0:1
-1:-1
0:3:1
-1:-1
0:1:1
-1:-1
0:1:1
-1:-1
0:1:1
-1:-1
0:1:1
-1:-1
0:3:1
-1:-1
0:0:1
-1:-1
2:0:1
0:-1
0:0:1
-1:-1
0:1:1
-1:-1
0:1:1
-1:-1
Finished CPU 0 instructions: 10000000 cycles: 7282611 cumulative IPC: 1.37313 (Simulation time: 0 hr 0 min 28 sec) 

CPU 0 Branch Prediction Accuracy: 97.5344% MPKI: 0.9085 Average ROB Occupancy at Mispredict: 297.709

ChampSim completed all CPUs

Region of Interest Statistics

CPU 0 cumulative IPC: 1.37313 instructions: 10000000 cycles: 7282611
L1D TOTAL     ACCESS:    2042156  HIT:    2036288  MISS:       5868
L1D LOAD      ACCESS:     753772  HIT:     749261  MISS:       4511
L1D RFO       ACCESS:     680813  HIT:     680720  MISS:         93
L1D PREFETCH  ACCESS:     607571  HIT:     606307  MISS:       1264
L1D WRITEBACK ACCESS:          0  HIT:          0  MISS:          0
L1D PREFETCH  REQUESTED:     733407  ISSUED:     721224  USEFUL:        179  USELESS:       1201
L1D AVERAGE MISS LATENCY: 20104.5 cycles
L1I TOTAL     ACCESS:    2156164  HIT:    2156162  MISS:          2
L1I LOAD      ACCESS:    2156164  HIT:    2156162  MISS:          2
L1I RFO       ACCESS:          0  HIT:          0  MISS:          0
L1I PREFETCH  ACCESS:          0  HIT:          0  MISS:          0
L1I WRITEBACK ACCESS:          0  HIT:          0  MISS:          0
L1I PREFETCH  REQUESTED:          0  ISSUED:          0  USEFUL:          0  USELESS:          0
L1I AVERAGE MISS LATENCY: 214 cycles
L2C TOTAL     ACCESS:      10621  HIT:       5967  MISS:       4654
L2C LOAD      ACCESS:       4491  HIT:       1544  MISS:       2947
L2C RFO       ACCESS:         93  HIT:          4  MISS:         89
L2C PREFETCH  ACCESS:       5952  HIT:       4334  MISS:       1618
L2C WRITEBACK ACCESS:         85  HIT:         85  MISS:          0
L2C PREFETCH  REQUESTED:       6764  ISSUED:       6683  USEFUL:        881  USELESS:          1
L2C AVERAGE MISS LATENCY: 153.229 cycles
LLC TOTAL     ACCESS:       4654  HIT:          0  MISS:       4654
LLC LOAD      ACCESS:       2947  HIT:          0  MISS:       2947
LLC RFO       ACCESS:         89  HIT:          0  MISS:         89
LLC PREFETCH  ACCESS:       1618  HIT:          0  MISS:       1618
LLC WRITEBACK ACCESS:          0  HIT:          0  MISS:          0
LLC PREFETCH  REQUESTED:          0  ISSUED:          0  USEFUL:          0  USELESS:          0
LLC AVERAGE MISS LATENCY: 123.157 cycles
Major fault: 0 Minor fault: 160
CPU 0 L2C next line prefetcher final stats

DRAM Statistics
 CHANNEL 0
 RQ ROW_BUFFER_HIT:       2816  ROW_BUFFER_MISS:       1838
 DBUS_CONGESTED:       1498
 WQ ROW_BUFFER_HIT:          0  ROW_BUFFER_MISS:          0  FULL:          0

 AVG_CONGESTED_CYCLE: 5
