
*** ChampSim Multicore Out-of-Order Simulator ***

Warmup Instructions: 1000000
Simulation Instructions: 10000000
Number of CPUs: 1
LLC sets: 2048
LLC ways: 16
Off-chip DRAM Size: 4096 MB Channels: 1 Width: 64-bit Data Rate: 3200 MT/s

CPU 0 runs /home/light/7th-Sem/cs622/project/ChampSim/dpc3_traces/627.cam4_s-573B.champsimtrace.xz

Warmup complete CPU 0 instructions: 1000003 cycles: 290213 (Simulation time: 0 hr 0 min 1 sec) 

1:1:4
-1:-1
2:2:3
0:0
1:0:3
-1:-1
3:2:2
0:-1
0:2:2
-1:-1
0:2:1
-1:1
0:6:1
-1:-1
0:1:1
-1:-1
3:2:1
0:1
4:3:2
1:0
11:2:3
2:0
3:4:4
0:0
3:1:4
0:-1
2:2:4
0:0
1:3:4
-1:0
6:5:3
1:0
3:6:4
0:0
8:0:4
2:-1
2:7:4
0:0
11:3:4
2:0
4:6:5
1:0
14:5:6
2:1
0:1:8
-1:-1
8:0:7
2:-1
0:2:7
-1:-1
0:2:6
-1:0
8:0:5
2:-1
3:0:5
0:-1
3:5:5
0:-1
0:4:5
-1:0
9:0:4
2:-1
0:1:4
-1:-1
5:3:3
1:0
3:3:4
0:0
11:3:4
2:0
3:2:5
0:-1
13:4:5
2:1
7:1:7
1:-1
12:0:7
2:-1
2:2:7
0:-1
9:0:7
2:-1
2:4:7
0:0
12:6:7
2:1
3:3:9
0:-1
2:8:9
0:0
6:0:9
1:-1
0:10:9
-1:1
7:0:9
1:-1
3:8:9
0:0
3:14:9
0:1
6:0:10
1:-1
11:6:10
2:0
10:0:11
2:-1
9:2:11
2:-1
4:7:11
1:-1
11:7:11
2:0
8:0:12
2:-1
9:6:12
2:0
9:7:12
2:-1
3:7:12
0:-1
3:7:12
0:-1
7:0:12
1:-1
0:7:12
-1:0
6:0:11
1:-1
6:10:11
1:0
11:0:12
2:-1
4:6:12
1:-1
2:11:12
0:0
6:0:12
1:-1
4:0:12
1:-1
6:4:12
1:-1
0:10:12
-1:0
6:0:11
1:-1
0:8:11
-1:0
1:16:10
-1:-1
2:2:9
0:-1
3:5:9
0:-1
0:2:9
-1:-1
5:8:8
1:0
0:8:9
-1:-1
3:27:8
0:0
0:3:8
-1:0
0:8:7
-1:0
0:2:6
-1:-1
7:3:5
1:-1
0:1:5
-1:-1
0:9:4
-1:-1
1:17:3
-1:0
8:6:2
2:-1
0:0:2
-1:-1
3:5:1
0:1
7:2:2
1:0
4:10:3
1:0
2:3:4
0:-1
5:5:4
1:0
6:1:5
1:-1
8:3:5
2:0
7:6:6
1:-1
0:6:6
-1:0
1:3:5
-1:-1
10:2:4
2:-1
10:1:4
2:0
11:1:5
2:-1
11:1:5
2:-1
1:3:5
-1:-1
0:1:4
-1:-1
4:22:3
1:-1
1:8:3
-1:-1
0:7:2
-1:-1
10:4:1
2:-1
9:5:1
2:1
0:2:3
-1:0
0:3:2
-1:1
8:6:2
2:1
4:7:4
1:0
9:5:5
2:-1
11:6:5
2:1
11:3:7
2:0
11:1:8
2:-1
10:8:8
2:0
2:2:9
0:-1
6:2:9
1:-1
7:1:9
1:-1
2:3:9
0:-1
0:3:9
-1:-1
6:4:8
1:0
10:7:9
2:0
5:7:10
1:0
10:6:11
2:-1
11:8:11
2:0
2:8:12
0:-1
0:6:12
-1:-1
3:8:11
0:-1
2:9:11
0:0
11:14:11
2:-1
0:15:11
-1:1
2:19:11
0:-1
0:11:11
-1:1
13:18:11
2:-1
6:19:11
1:0
12:17:12
2:1
12:18:12
2:-1
0:5:12
-1:0
0:15:11
-1:-1
0:16:10
-1:-1
4:8:9
1:-1
0:18:9
-1:-1
2:15:8
0:-1
12:17:8
2:-1
12:19:8
2:1
3:16:10
0:1
9:16:11
2:0
2:8:12
0:-1
12:14:12
2:-1
14:10:12
2:0
14:10:12
2:0
14:13:12
2:0
11:12:12
2:-1
14:10:12
2:0
14:9:12
2:0
2:5:12
0:0
8:12:12
2:-1
12:17:12
2:0
14:18:12
2:1
14:16:12
2:1
5:18:12
1:1
14:17:12
2:1
0:17:12
-1:1
6:9:12
1:0
1:8:12
-1:0
8:9:11
2:0
1:4:12
-1:-1
0:4:11
-1:-1
2:3:10
0:-1
8:3:10
2:-1
8:2:10
2:-1
9:2:10
2:-1
10:4:10
2:0
3:3:11
0:-1
2:1:11
0:-1
8:5:11
2:-1
3:3:11
0:-1
2:2:11
0:-1
3:3:11
0:-1
7:1:11
1:-1
8:1:11
2:-1
4:9:11
1:-1
11:13:11
2:1
0:9:12
-1:0
6:4:11
1:-1
12:2:11
2:-1
14:7:11
2:0
1:8:12
-1:-1
4:4:11
1:-1
5:8:11
1:-1
9:6:11
2:-1
8:11:11
2:0
3:11:12
0:-1
3:9:12
0:-1
3:11:12
0:-1
7:9:12
1:-1
4:10:12
1:-1
7:6:12
1:-1
0:1:12
-1:-1
1:3:11
-1:-1
0:1:10
-1:-1
2:2:9
0:-1
3:1:9
0:-1
4:1:9
1:-1
5:1:9
1:-1
6:1:9
1:-1
7:1:9
1:-1
8:2:9
2:-1
9:2:9
2:-1
10:1:9
2:-1
0:0:9
-1:-1
2:2:8
0:-1
3:11:8
0:-1
0:4:8
-1:-1
6:4:7
1:-1
0:2:7
-1:-1
9:51:6
2:-1
5:22:6
1:0
0:20:7
-1:-1
0:7:6
-1:-1
0:12:5
-1:-1
3:5:4
0:0
4:1:4
1:0
5:1:5
1:-1
0:88:5
-1:0
0:78:4
-1:0
0:78:3
-1:1
0:78:3
-1:1
0:77:3
-1:0
0:78:2
-1:1
0:78:2
-1:1
0:78:2
-1:1
0:31:2
-1:-1
2:5:1
0:-1
1:6:1
-1:1
4:9:1
1:1
4:7:2
1:-1
4:5:2
1:-1
4:5:2
1:-1
2:7:2
0:-1
2:9:2
0:1
1:6:3
-1:0
0:5:2
-1:1
3:8:2
0:1
3:8:3
0:0
3:5:3
0:0
3:5:3
0:0
1:6:3
-1:0
1:9:2
-1:1
0:5:2
-1:1
0:5:2
-1:-1
1:5:1
-1:1
4:9:1
1:1
4:7:2
1:-1
4:5:2
1:-1
4:5:2
1:-1
2:7:2
0:-1
2:9:2
0:1
0:5:3
-1:0
0:9:2
-1:0
6:6:1
1:1
9:14:2
2:0
14:11:3
2:1
2:7:5
0:1
1:2:6
-1:-1
0:2:5
-1:-1
0:5:4
-1:1
2:7:4
0:-1
0:2:4
-1:-1
2:8:3
0:1
2:1:4
0:-1
0:1:4
-1:-1
3:3:3
0:1
5:11:4
1:0
8:5:5
2:0
2:9:6
0:1
3:1:7
0:-1
0:1:7
-1:-1
7:7:6
1:0
0:20:7
-1:0
1:1:6
-1:-1
0:1:5
-1:-1
14:14:4
2:1
14:7:6
2:1
14:13:8
2:1
1:13:10
-1:1
12:1:10
2:-1
1:13:10
-1:1
14:13:10
2:1
0:12:12
-1:1
13:1:12
2:-1
13:13:12
2:1
0:12:12
-1:1
2:19:12
0:0
0:22:12
-1:0
4:7:11
1:-1
5:1:11
1:-1
2:2:11
0:-1
5:2:11
1:-1
3:2:11
0:-1
5:2:11
1:-1
6:3:11
1:-1
7:1:11
1:-1
10:2:11
2:-1
7:2:11
1:-1
1:5:11
-1:-1
8:7:10
2:0
0:3:11
-1:-1
2:2:10
0:-1
2:5:10
0:-1
7:8:10
1:-1
1:1:10
-1:-1
6:18:9
1:-1
6:19:9
1:1
0:11:10
-1:0
9:20:9
2:-1
4:3:9
1:-1
6:19:9
1:1
0:3:10
-1:-1
0:18:9
-1:1
6:19:9
1:1
0:11:10
-1:0
7:25:9
1:-1
7:8:9
1:0
0:18:10
-1:0
7:23:9
1:-1
6:18:9
1:0
0:8:10
-1:0
7:25:9
1:-1
7:11:9
1:0
0:15:10
-1:0
7:24:9
1:-1
7:13:9
1:0
7:11:10
1:0
7:19:11
1:-1
8:19:11
2:0
7:12:12
1:0
0:3:12
-1:-1
7:25:11
1:-1
7:13:11
1:0
7:13:12
1:0
7:20:12
1:-1
6:19:12
1:0
0:13:12
-1:0
7:25:11
1:-1
7:6:11
1:0
7:20:12
1:-1
6:3:12
1:-1
7:19:12
1:-1
6:19:12
1:0
0:11:12
-1:0
6:23:11
1:-1
6:8:11
1:0
0:17:12
-1:0
5:16:11
1:-1
7:10:11
1:0
7:10:12
1:0
8:9:12
2:0
4:14:12
1:-1
6:9:12
1:0
6:8:12
1:0
7:8:12
1:0
0:5:12
-1:-1
6:19:11
1:-1
0:7:11
-1:-1
7:9:10
1:0
0:5:11
-1:-1
7:18:10
1:-1
6:5:10
1:-1
7:11:10
1:0
0:11:11
-1:0
6:20:10
1:-1
7:5:10
1:-1
7:11:10
1:0
0:9:11
-1:0
7:15:10
1:-1
8:12:10
2:0
5:9:11
1:0
0:5:12
-1:-1
5:14:11
1:-1
7:9:11
1:0
7:11:12
1:0
7:10:12
1:0
0:7:12
-1:0
5:14:11
1:-1
7:9:11
1:0
7:11:12
1:0
7:8:12
1:0
3:9:12
0:-1
7:13:12
1:0
6:8:12
1:0
6:10:12
1:0
0:5:12
-1:-1
6:16:11
1:-1
6:11:11
1:0
6:8:12
1:0
0:5:12
-1:-1
6:14:11
1:-1
7:7:11
1:0
5:10:12
1:0
0:9:12
-1:0
7:18:11
1:-1
7:6:11
1:0
6:19:12
1:0
0:3:12
-1:-1
7:19:11
1:-1
6:18:11
1:0
0:12:12
-1:0
7:25:11
1:-1
6:7:11
1:0
0:19:12
-1:0
7:22:11
1:-1
6:19:11
1:0
0:10:12
-1:0
6:23:11
1:-1
7:10:11
1:0
0:17:12
-1:-1
6:24:11
1:-1
7:13:11
1:0
7:10:12
1:0
0:19:12
-1:-1
7:20:11
1:0
7:13:12
1:0
0:4:12
-1:-1
7:25:11
1:-1
7:12:11
1:0
3:12:12
0:-1
7:20:12
1:-1
6:19:12
1:0
7:12:12
1:0
0:3:12
-1:-1
5:24:11
1:-1
7:10:11
1:0
7:14:12
1:0
0:2:12
-1:-1
7:20:11
1:-1
6:19:11
1:0
0:11:12
-1:0
7:23:11
1:-1
6:8:11
1:0
0:19:12
-1:0
7:22:11
1:-1
6:18:11
1:0
0:9:12
-1:0
7:25:11
1:-1
7:10:11
1:0
0:16:12
-1:0
7:24:11
1:-1
7:13:11
1:-1
7:10:11
1:0
2:14:12
0:-1
6:13:12
1:0
7:7:12
1:0
7:16:12
1:0
3:15:12
0:-1
7:16:12
1:0
7:12:12
1:0
7:8:12
1:0
3:16:12
0:-1
7:18:12
1:0
4:12:12
1:-1
7:8:12
1:0
3:12:12
0:-1
7:18:12
1:0
7:12:12
1:0
7:8:12
1:0
3:15:12
0:-1
7:18:12
1:0
6:17:12
1:0
2:10:12
0:-1
7:16:12
1:0
7:12:12
1:0
7:8:12
1:0
1:12:12
-1:-1
7:16:11
1:-1
7:10:11
1:0
7:10:12
1:0
6:11:12
1:-1
7:17:12
1:-1
6:12:12
1:0
7:8:12
1:0
2:13:12
0:-1
7:20:12
1:0
7:6:12
1:0
0:19:12
-1:0
6:21:11
1:-1
6:19:11
1:0
0:10:12
-1:0
7:23:11
1:-1
7:10:11
1:0
0:17:12
-1:0
6:23:11
1:-1
6:18:11
1:0
0:7:12
-1:-1
3:23:11
0:-1
7:13:11
1:0
0:13:12
-1:0
7:24:11
1:-1
7:13:11
1:0
0:12:12
-1:0
6:20:11
1:-1
6:19:11
1:0
7:12:12
1:0
0:2:12
-1:-1
7:24:11
1:-1
7:6:11
1:0
5:19:12
1:0
0:2:12
-1:-1
6:19:11
1:-1
6:19:11
1:0
0:12:12
-1:0
5:23:11
1:-1
6:8:11
1:0
0:19:12
-1:0
6:21:11
1:-1
6:19:11
1:0
0:10:12
-1:0
6:23:11
1:-1
7:10:11
1:0
0:16:12
-1:0
6:23:11
1:-1
6:12:11
1:0
7:10:12
1:0
6:19:12
1:-1
6:19:12
1:0
7:13:12
1:0
0:3:12
-1:-1
7:24:11
1:-1
7:12:11
1:0
7:13:12
1:0
0:3:12
-1:-1
6:17:11
1:-1
7:18:11
1:0
7:13:12
1:0
0:2:12
-1:-1
7:24:11
1:-1
7:6:11
1:0
6:19:12
1:0
0:2:12
-1:-1
6:19:11
1:-1
6:19:11
1:-1
0:11:11
-1:0
5:19:10
1:-1
6:9:10
1:0
6:9:11
1:0
3:8:12
0:0
0:9:12
-1:-1
6:10:11
1:-1
7:11:11
1:0
6:9:12
1:0
7:9:12
1:0
3:13:12
0:-1
5:8:12
1:-1
0:9:12
-1:0
7:13:11
1:0
2:13:12
0:0
7:13:12
1:0
7:14:12
1:0
7:13:12
1:0
4:13:12
1:-1
7:10:12
1:0
7:16:12
1:0
0:10:12
-1:0
5:12:11
1:0
7:9:12
1:0
6:13:12
1:-1
7:7:12
1:0
4:14:12
1:-1
7:11:12
1:0
8:11:12
2:0
8:7:12
2:0
2:9:12
0:-1
5:10:12
1:0
3:11:12
0:0
6:13:12
1:0
0:7:12
-1:0
6:15:11
1:0
7:10:12
1:0
6:13:12
1:0
5:9:12
1:-1
7:11:12
1:-1
6:11:12
1:0
7:15:12
1:0
0:4:12
-1:-1
6:18:11
1:-1
0:7:11
-1:0
7:14:10
1:0
0:10:11
-1:-1
5:14:10
1:-1
7:14:10
1:0
8:10:11
2:0
0:8:12
-1:0
5:12:11
1:-1
3:9:11
0:0
7:10:11
1:0
7:8:12
1:0
2:10:12
0:-1
7:15:12
1:0
7:8:12
1:0
7:18:12
1:0
5:17:12
1:-1
7:18:12
1:0
7:18:12
1:0
5:15:12
1:-1
7:18:12
1:0
7:18:12
1:0
4:14:12
1:-1
6:19:12
1:0
7:12:12
1:0
0:6:12
-1:-1
6:21:11
1:-1
7:13:11
1:0
7:11:12
1:0
6:19:12
1:-1
6:19:12
1:0
3:13:12
0:0
0:3:12
-1:-1
6:23:11
1:-1
7:12:11
1:0
6:13:12
1:0
6:19:12
1:-1
2:19:12
0:0
7:12:12
1:0
0:2:12
-1:-1
6:23:11
1:-1
7:6:11
1:0
6:18:12
1:0
0:2:12
-1:-1
7:20:11
1:-1
6:18:11
1:0
0:10:12
-1:0
7:24:11
1:-1
7:10:11
1:0
0:17:12
-1:0
6:23:11
1:-1
6:19:11
1:0
0:8:12
-1:0
6:23:11
1:-1
4:12:11
1:-1
0:15:11
-1:0
4:25:10
1:-1
2:15:10
0:-1
0:9:10
-1:-1
3:12:9
0:-1
12:23:9
2:1
0:19:11
-1:-1
6:23:10
1:1
0:22:11
-1:-1
3:25:10
0:-1
7:28:10
1:1
2:27:11
0:0
14:27:11
2:-1
14:19:11
2:0
14:24:12
2:0
14:23:12
2:-1
12:24:12
2:-1
14:22:12
2:-1
14:21:12
2:-1
2:23:12
0:-1
14:20:12
2:-1
12:21:12
2:-1
14:23:12
2:0
14:22:12
2:0
2:22:12
0:0
14:19:12
2:0
14:25:12
2:0
14:22:12
2:0
14:23:12
2:0
4:20:12
1:0
0:9:12
-1:0
11:11:11
2:0
7:21:12
1:0
14:22:12
2:1
14:24:12
2:0
14:25:12
2:-1
14:27:12
2:0
14:22:12
2:0
14:26:12
2:0
14:27:12
2:0
14:25:12
2:0
14:26:12
2:0
14:25:12
2:1
11:27:12
2:1
14:27:12
2:0
10:27:12
2:0
14:26:12
2:0
6:25:12
1:0
14:27:12
2:0
5:28:12
1:0
14:25:12
2:0
3:27:12
0:1
14:25:12
2:0
1:36:12
-1:1
2:9:12
0:-1
8:18:12
2:0
2:20:12
0:-1
7:25:12
1:-1
12:25:12
2:0
7:28:12
1:0
13:24:12
2:-1
10:28:12
2:-1
14:26:12
2:0
4:27:12
1:0
8:28:12
2:-1
13:26:12
2:0
0:26:12
-1:0
7:27:11
1:0
13:27:12
2:0
3:25:12
0:0
4:25:12
1:-1
9:26:12
2:-1
14:25:12
2:0
8:25:12
2:0
8:28:12
2:-1
2:18:12
0:-1
14:17:12
2:0
14:22:12
2:0
14:22:12
2:0
14:26:12
2:0
14:24:12
2:0
14:26:12
2:0
14:23:12
2:0
13:24:12
2:0
14:24:12
2:0
14:25:12
2:0
14:28:12
2:0
14:25:12
2:0
14:23:12
2:0
14:27:12
2:0
14:27:12
2:0
14:23:12
2:0
14:25:12
2:0
14:27:12
2:0
14:29:12
2:0
14:24:12
2:-1
0:28:12
-1:0
1:9:11
-1:-1
0:4:10
-1:-1
8:6:9
2:-1
9:6:9
2:0
10:1:10
2:-1
11:1:10
2:-1
0:0:10
-1:-1
3:8:9
0:0
5:7:9
1:-1
0:3:9
-1:-1
0:9:8
-1:0
6:5:7
1:0
7:3:8
1:-1
0:8:8
-1:-1
4:6:7
1:0
3:2:8
0:-1
0:5:8
-1:0
2:2:7
0:-1
8:3:7
2:0
12:4:8
2:0
14:5:9
2:0
0:3:10
-1:0
9:6:9
2:-1
0:0:9
-1:-1
0:10:8
-1:-1
4:9:7
1:0
8:5:8
2:0
0:6:9
-1:0
8:7:8
2:0
4:4:9
1:-1
10:3:9
2:0
0:3:10
-1:0
0:1:9
-1:-1
0:21:8
-1:-1
0:0:7
-1:-1
1:0:6
-1:-1
2:1:5
0:-1
0:25:5
-1:-1
0:25:4
-1:-1
0:25:3
-1:-1
0:25:2
-1:-1
0:25:1
-1:-1
0:25:1
-1:-1
0:25:1
-1:-1
0:1:1
-1:-1
0:25:1
-1:-1
0:25:1
-1:-1
0:26:1
-1:-1
0:25:1
-1:-1
0:25:1
-1:-1
0:26:1
-1:-1
0:25:1
-1:-1
0:25:1
-1:-1
0:26:1
-1:-1
0:1:1
-1:-1
0:25:1
-1:-1
0:25:1
-1:-1
0:26:1
-1:-1
0:25:1
-1:-1
0:25:1
-1:-1
0:25:1
-1:-1
0:1:1
-1:-1
2:24:1
0:-1
0:0:1
-1:-1
0:25:1
-1:-1
0:26:1
-1:-1
0:24:1
-1:-1
1:20:1
-1:-1
0:6:1
-1:-1
0:25:1
-1:-1
0:25:1
-1:-1
0:25:1
-1:-1
0:25:1
-1:-1
0:26:1
-1:-1
0:24:1
-1:-1
0:25:1
-1:-1
0:25:1
-1:-1
0:1:1
-1:-1
0:25:1
-1:-1
0:25:1
-1:-1
0:26:1
-1:-1
0:25:1
-1:-1
0:25:1
-1:-1
0:26:1
-1:-1
0:25:1
-1:-1
0:25:1
-1:-1
0:26:1
-1:-1
0:25:1
-1:-1
0:25:1
-1:-1
0:26:1
-1:-1
2:2:1
0:-1
11:4:1
2:-1
0:30:1
-1:-1
0:38:1
-1:-1
0:48:1
-1:-1
0:50:1
-1:-1
2:67:1
0:1
1:69:2
-1:0
11:37:1
2:-1
0:15:1
-1:1
1:49:1
-1:1
1:7:1
-1:-1
11:60:1
2:1
0:42:3
-1:1
0:24:3
-1:0
1:49:2
-1:1
4:11:2
1:0
9:9:3
2:0
0:6:4
-1:-1
0:12:3
-1:0
3:4:2
0:0
2:10:2
0:-1
0:2:2
-1:-1
11:1:1
2:-1
2:3:1
0:-1
0:0:1
-1:-1
0:5:1
-1:-1
0:4:1
-1:-1
1:9:1
-1:-1
0:1:1
-1:-1
0:3:1
-1:-1
0:0:1
-1:-1
0:0:1
-1:-1
0:2:1
-1:-1
2:0:1
0:-1
0:1:1
-1:-1
0:2:1
-1:-1
0:1:1
-1:-1
2:2:1
0:1
3:1:2
0:0
4:1:2
1:0
5:1:3
1:0
6:1:4
1:0
7:1:5
1:-1
8:1:5
2:-1
9:1:5
2:-1
10:1:5
2:-1
11:1:5
2:-1
12:1:5
2:-1
13:1:5
2:-1
14:1:5
2:-1
14:1:5
2:-1
14:1:5
2:-1
14:1:5
2:-1
14:1:5
2:-1
14:1:5
2:-1
14:1:5
2:-1
14:1:5
2:-1
14:1:5
2:-1
0:1:5
-1:-1
0:2:4
-1:-1
0:3:3
-1:0
0:1:2
-1:-1
0:0:1
-1:-1
0:0:1
-1:-1
0:2:1
-1:-1
1:1:1
-1:1
2:1:1
0:1
3:1:2
0:0
4:1:2
1:0
5:1:3
1:0
6:1:4
1:0
7:1:5
1:-1
8:1:5
2:-1
9:1:5
2:-1
10:1:5
2:-1
11:1:5
2:-1
12:1:5
2:-1
13:1:5
2:-1
14:1:5
2:-1
14:1:5
2:-1
14:1:5
2:-1
14:1:5
2:-1
14:1:5
2:-1
14:1:5
2:-1
14:1:5
2:-1
14:1:5
2:-1
14:1:5
2:-1
14:1:5
2:-1
14:1:5
2:-1
0:2:5
-1:-1
3:2:4
0:-1
0:2:4
-1:-1
1:1:3
-1:0
2:1:2
0:0
3:1:2
0:0
4:1:2
1:0
5:1:3
1:0
6:1:4
1:0
7:1:5
1:-1
8:1:5
2:-1
9:1:5
2:-1
10:1:5
2:-1
11:1:5
2:-1
12:1:5
2:-1
13:1:5
2:-1
14:1:5
2:-1
0:1:5
-1:-1
2:2:4
0:0
3:1:4
0:0
4:1:4
1:0
5:1:5
1:-1
6:1:5
1:-1
7:1:5
1:-1
8:1:5
2:-1
0:1:5
-1:-1
0:2:4
-1:-1
1:2:3
-1:-1
0:3:2
-1:-1
1:1:1
-1:1
2:1:1
0:1
3:1:2
0:0
4:1:2
1:0
5:1:3
1:0
6:1:4
1:0
7:1:5
1:-1
8:1:5
2:-1
9:1:5
2:-1
10:1:5
2:-1
11:1:5
2:-1
12:1:5
2:-1
13:1:5
2:-1
14:1:5
2:-1
14:1:5
2:-1
14:1:5
2:-1
14:1:5
2:-1
14:1:5
2:-1
14:1:5
2:-1
14:1:5
2:-1
14:1:5
2:-1
14:1:5
2:-1
14:1:5
2:-1
0:1:5
-1:-1
0:4:4
-1:-1
4:4:3
1:-1
0:0:3
-1:-1
0:1:2
-1:-1
1:1:1
-1:1
2:1:1
0:1
3:1:2
0:0
4:1:2
1:0
5:1:3
1:0
6:1:4
1:0
7:1:5
1:-1
8:1:5
2:-1
9:1:5
2:-1
10:1:5
2:-1
11:1:5
2:-1
12:1:5
2:-1
13:1:5
2:-1
14:1:5
2:-1
14:1:5
2:-1
14:1:5
2:-1
14:1:5
2:-1
14:1:5
2:-1
14:1:5
2:-1
0:0:5
-1:-1
13:1:4
2:-1
13:1:4
2:0
13:1:5
2:-1
13:1:5
2:-1
0:1:5
-1:-1
2:3:4
0:-1
1:0:4
-1:-1
1:1:3
-1:-1
0:2:2
-1:-1
1:1:1
-1:1
2:1:1
0:1
3:1:2
0:0
0:1:2
-1:-1
2:2:1
0:1
3:1:2
0:0
4:1:2
1:0
5:1:3
1:0
6:1:4
1:0
7:1:5
1:-1
8:1:5
2:-1
9:1:5
2:-1
10:1:5
2:-1
11:1:5
2:-1
12:1:5
2:-1
13:1:5
2:-1
14:1:5
2:-1
14:1:5
2:-1
14:1:5
2:-1
14:1:5
2:-1
14:1:5
2:-1
14:1:5
2:-1
0:1:5
-1:-1
2:3:4
0:-1
2:1:4
0:-1
0:2:4
-1:0
1:1:3
-1:0
2:1:2
0:0
3:1:2
0:0
4:1:2
1:0
5:1:3
1:0
6:1:4
1:0
7:1:5
1:-1
8:1:5
2:-1
9:1:5
2:-1
10:1:5
2:-1
11:1:5
2:-1
12:1:5
2:-1
13:1:5
2:-1
14:1:5
2:-1
14:1:5
2:-1
14:1:5
2:-1
14:1:5
2:-1
14:1:5
2:-1
14:1:5
2:-1
14:1:5
2:-1
14:1:5
2:-1
14:1:5
2:-1
14:1:5
2:-1
14:1:5
2:-1
4:3:5
1:-1
0:3:5
-1:-1
0:0:4
-1:-1
2:2:3
0:-1
3:1:3
0:0
4:1:3
1:0
5:1:4
1:0
6:1:5
1:-1
7:1:5
1:-1
8:1:5
2:-1
9:1:5
2:-1
10:1:5
2:-1
11:1:5
2:-1
12:1:5
2:-1
13:1:5
2:-1
13:1:5
2:-1
14:1:5
2:-1
14:1:5
2:-1
14:1:5
2:-1
0:1:5
-1:-1
2:2:4
0:0
3:1:4
0:0
4:1:4
1:0
5:1:5
1:-1
6:1:5
1:-1
1:2:5
-1:-1
0:3:4
-1:-1
0:2:3
-1:-1
1:1:2
-1:0
2:1:1
0:1
3:1:2
0:0
4:1:2
1:0
5:1:3
1:0
6:1:4
1:0
7:1:5
1:-1
8:1:5
2:-1
9:1:5
2:-1
10:1:5
2:-1
11:1:5
2:-1
12:1:5
2:-1
13:1:5
2:-1
14:1:5
2:-1
14:1:5
2:-1
14:1:5
2:-1
14:1:5
2:-1
14:1:5
2:-1
14:1:5
2:-1
14:1:5
2:-1
14:1:5
2:-1
14:1:5
2:-1
14:1:5
2:-1
14:1:5
2:-1
2:2:5
0:-1
3:2:5
0:-1
3:1:5
0:-1
3:1:5
0:-1
3:1:5
0:-1
4:1:5
1:-1
5:1:5
1:-1
6:1:5
1:-1
7:1:5
1:-1
8:1:5
2:-1
9:1:5
2:-1
10:1:5
2:-1
11:1:5
2:-1
12:1:5
2:-1
13:1:5
2:-1
14:1:5
2:-1
14:1:5
2:-1
14:1:5
2:-1
14:1:5
2:-1
14:1:5
2:-1
14:1:5
2:-1
14:1:5
2:-1
14:1:5
2:-1
14:1:5
2:-1
14:1:5
2:-1
0:1:5
-1:-1
0:2:4
-1:-1
4:3:3
1:-1
4:1:3
1:0
4:1:4
1:0
4:1:5
1:-1
5:1:5
1:-1
5:1:5
1:-1
6:1:5
1:-1
0:1:5
-1:-1
2:2:4
0:0
3:1:4
0:0
4:1:4
1:0
5:1:5
1:-1
6:1:5
1:-1
7:1:5
1:-1
8:1:5
2:-1
9:1:5
2:-1
10:1:5
2:-1
11:1:5
2:-1
12:1:5
2:-1
13:1:5
2:-1
14:1:5
2:-1
14:1:5
2:-1
14:1:5
2:-1
0:1:5
-1:-1
2:3:4
0:-1
5:1:4
1:-1
5:1:4
1:0
5:1:5
1:-1
5:1:5
1:-1
5:1:5
1:-1
6:1:5
1:-1
6:1:5
1:-1
7:1:5
1:-1
8:1:5
2:-1
9:1:5
2:-1
10:1:5
2:-1
11:1:5
2:-1
12:1:5
2:-1
13:1:5
2:-1
14:1:5
2:-1
14:1:5
2:-1
14:1:5
2:-1
14:1:5
2:-1
14:1:5
2:-1
14:1:5
2:-1
14:1:5
2:-1
14:1:5
2:-1
14:1:5
2:-1
14:1:5
2:-1
14:1:5
2:-1
6:5:5
1:-1
6:1:5
1:-1
6:1:5
1:-1
6:1:5
1:-1
6:1:5
1:-1
6:1:5
1:-1
6:1:5
1:-1
7:1:5
1:-1
8:1:5
2:-1
9:1:5
2:-1
10:1:5
2:-1
11:1:5
2:-1
12:1:5
2:-1
13:1:5
2:-1
14:1:5
2:-1
14:1:5
2:-1
14:1:5
2:-1
14:1:5
2:-1
14:1:5
2:-1
14:1:5
2:-1
14:1:5
2:-1
0:1:5
-1:-1
2:2:4
0:0
3:1:4
0:0
4:6:4
1:0
5:1:5
1:-1
6:1:5
1:-1
7:1:5
1:-1
7:1:5
1:-1
7:1:5
1:-1
7:1:5
1:-1
7:1:5
1:-1
8:1:5
2:-1
9:1:5
2:-1
10:1:5
2:-1
11:1:5
2:-1
12:1:5
2:-1
13:1:5
2:-1
14:1:5
2:-1
14:1:5
2:-1
14:1:5
2:-1
14:1:5
2:-1
14:1:5
2:-1
14:1:5
2:-1
14:1:5
2:-1
14:1:5
2:-1
14:1:5
2:-1
14:1:5
2:-1
14:1:5
2:-1
10:3:5
2:-1
10:1:5
2:-1
10:1:5
2:-1
10:1:5
2:-1
10:1:5
2:-1
10:1:5
2:-1
10:1:5
2:-1
10:1:5
2:-1
10:1:5
2:-1
10:1:5
2:-1
10:1:5
2:-1
11:1:5
2:-1
12:1:5
2:-1
13:1:5
2:-1
14:1:5
2:-1
14:1:5
2:-1
14:1:5
2:-1
14:1:5
2:-1
14:1:5
2:-1
14:1:5
2:-1
14:1:5
2:-1
14:1:5
2:-1
14:1:5
2:-1
14:1:5
2:-1
14:1:5
2:-1
9:2:5
2:-1
9:1:5
2:-1
9:1:5
2:-1
9:1:5
2:-1
9:1:5
2:-1
9:1:5
2:-1
9:1:5
2:-1
9:1:5
2:-1
9:1:5
2:-1
9:1:5
2:-1
0:1:5
-1:-1
2:2:4
0:0
3:1:4
0:0
4:1:4
1:0
5:1:5
1:-1
6:1:5
1:-1
7:1:5
1:-1
8:1:5
2:-1
9:1:5
2:-1
10:1:5
2:-1
11:1:5
2:-1
12:1:5
2:-1
13:1:5
2:-1
14:1:5
2:-1
14:2:5
2:0
14:3:6
2:0
14:5:7
2:0
14:6:8
2:0
14:6:9
2:0
14:5:10
2:0
14:6:11
2:0
14:6:12
2:0
14:6:12
2:0
0:5:12
-1:0
7:7:11
1:0
13:6:12
2:0
14:6:12
2:0
14:6:12
2:0
14:7:12
2:0
14:6:12
2:0
14:6:12
2:0
14:6:12
2:0
14:7:12
2:0
14:6:12
2:0
5:6:12
1:-1
11:6:12
2:0
14:6:12
2:0
14:6:12
2:0
14:6:12
2:0
14:6:12
2:0
14:5:12
2:0
14:6:12
2:0
14:6:12
2:0
14:6:12
2:0
14:5:12
2:0
5:6:12
1:-1
10:5:12
2:0
14:6:12
2:0
14:6:12
2:0
14:6:12
2:0
14:6:12
2:0
14:6:12
2:0
14:6:12
2:0
14:5:12
2:0
14:6:12
2:0
14:6:12
2:0
5:6:12
1:-1
1:14:12
-1:-1
2:6:11
0:-1
0:16:11
-1:0
0:52:10
-1:-1
0:24:9
-1:-1
2:16:8
0:-1
0:8:8
-1:-1
0:1:7
-1:-1
2:2:6
0:0
3:1:6
0:-1
4:1:6
1:-1
5:1:6
1:-1
6:1:6
1:-1
7:1:6
1:-1
8:1:6
2:-1
9:1:6
2:-1
10:1:6
2:-1
11:1:6
2:-1
12:1:6
2:-1
13:1:6
2:-1
0:1:6
-1:-1
13:2:5
2:-1
13:1:5
2:-1
13:1:5
2:-1
13:1:5
2:-1
13:1:5
2:-1
13:1:5
2:-1
13:1:5
2:-1
13:1:5
2:-1
13:1:5
2:-1
0:10:5
-1:-1
1:16:4
-1:0
0:13:3
-1:-1
1:1:2
-1:0
2:1:1
0:1
3:1:2
0:0
4:1:2
1:0
5:1:3
1:0
6:1:4
1:0
7:1:5
1:-1
8:1:5
2:-1
9:1:5
2:-1
10:1:5
2:-1
11:1:5
2:-1
12:1:5
2:-1
13:1:5
2:-1
0:1:5
-1:-1
13:2:4
2:-1
13:1:4
2:0
13:1:5
2:-1
13:1:5
2:-1
13:1:5
2:-1
13:1:5
2:-1
13:1:5
2:-1
13:1:5
2:-1
13:1:5
2:-1
13:1:5
2:-1
0:9:5
-1:-1
2:13:4
0:0
0:8:4
-1:-1
1:1:3
-1:0
2:1:2
0:0
3:1:2
0:0
4:1:2
1:0
5:1:3
1:0
6:1:4
1:0
7:1:5
1:-1
8:1:5
2:-1
9:1:5
2:-1
10:1:5
2:-1
11:1:5
2:-1
12:1:5
2:-1
13:1:5
2:-1
14:1:5
2:-1
0:1:5
-1:-1
2:2:4
0:0
3:1:4
0:0
4:1:4
1:0
5:1:5
1:-1
6:1:5
1:-1
7:1:5
1:-1
8:1:5
2:-1
9:1:5
2:-1
0:13:5
-1:-1
0:5:4
-1:0
2:16:3
0:0
0:2:3
-1:-1
1:1:2
-1:0
2:1:1
0:1
3:1:2
0:0
4:1:2
1:0
5:1:3
1:0
6:1:4
1:0
7:1:5
1:-1
8:1:5
2:-1
9:1:5
2:-1
10:1:5
2:-1
11:1:5
2:-1
12:1:5
2:-1
13:1:5
2:-1
14:1:5
2:-1
14:1:5
2:-1
14:1:5
2:-1
14:1:5
2:-1
14:1:5
2:-1
14:1:5
2:-1
14:1:5
2:-1
14:1:5
2:-1
14:1:5
2:-1
14:1:5
2:-1
14:1:5
2:-1
2:11:5
0:-1
0:15:5
-1:-1
0:7:4
-1:0
0:2:3
-1:-1
1:1:2
-1:0
2:1:1
0:1
3:1:2
0:0
4:1:2
1:0
5:1:3
1:0
6:1:4
1:0
7:1:5
1:-1
8:1:5
2:-1
9:1:5
2:-1
10:1:5
2:-1
11:1:5
2:-1
12:1:5
2:-1
13:1:5
2:-1
14:1:5
2:-1
14:1:5
2:-1
14:1:5
2:-1
14:1:5
2:-1
14:1:5
2:-1
14:1:5
2:-1
14:1:5
2:-1
14:1:5
2:-1
14:1:5
2:-1
14:1:5
2:-1
14:1:5
2:-1
0:14:5
-1:-1
1:8:4
-1:-1
0:10:3
-1:-1
1:1:2
-1:0
2:1:1
0:1
3:1:2
0:0
0:1:2
-1:-1
2:2:1
0:1
3:1:2
0:0
4:1:2
1:0
5:1:3
1:0
6:1:4
1:0
7:1:5
1:-1
8:1:5
2:-1
9:1:5
2:-1
10:1:5
2:-1
11:1:5
2:-1
12:1:5
2:-1
13:1:5
2:-1
14:1:5
2:-1
14:1:5
2:-1
14:1:5
2:-1
14:1:5
2:-1
14:1:5
2:-1
14:1:5
2:-1
14:1:5
2:-1
2:12:5
0:-1
1:3:5
-1:-1
2:3:4
0:0
0:3:4
-1:-1
1:1:3
-1:0
2:1:2
0:0
3:1:2
0:0
4:1:2
1:0
5:1:3
1:0
6:1:4
1:0
7:1:5
1:-1
8:1:5
2:-1
9:1:5
2:-1
10:1:5
2:-1
11:1:5
2:-1
12:1:5
2:-1
13:1:5
2:-1
14:1:5
2:-1
14:1:5
2:-1
14:1:5
2:-1
14:1:5
2:-1
14:1:5
2:-1
14:1:5
2:-1
14:1:5
2:-1
14:1:5
2:-1
14:1:5
2:-1
14:1:5
2:-1
14:1:5
2:-1
2:8:5
0:-1
2:5:5
0:-1
0:6:5
-1:-1
0:1:4
-1:-1
1:1:3
-1:0
2:1:2
0:0
3:1:2
0:0
4:1:2
1:0
5:1:3
1:0
6:1:4
1:0
7:1:5
1:-1
8:1:5
2:-1
9:1:5
2:-1
10:1:5
2:-1
11:1:5
2:-1
12:1:5
2:-1
13:1:5
2:-1
14:1:5
2:-1
14:1:5
2:-1
14:1:5
2:-1
14:1:5
2:-1
0:1:5
-1:-1
2:2:4
0:0
3:1:4
0:0
4:1:4
1:0
5:1:5
1:-1
0:1:5
-1:-1
2:5:4
0:-1
2:7:4
0:-1
0:6:4
-1:0
1:1:3
-1:0
2:1:2
0:0
3:1:2
0:0
4:1:2
1:0
5:1:3
1:0
6:1:4
1:0
7:1:5
1:-1
8:1:5
2:-1
9:1:5
2:-1
10:1:5
2:-1
11:1:5
2:-1
12:1:5
2:-1
13:1:5
2:-1
14:1:5
2:-1
14:1:5
2:-1
14:1:5
2:-1
14:1:5
2:-1
14:1:5
2:-1
14:1:5
2:-1
14:1:5
2:-1
14:1:5
2:-1
14:1:5
2:-1
14:1:5
2:-1
0:1:5
-1:-1
0:7:4
-1:-1
0:12:3
-1:-1
1:1:2
-1:0
2:1:1
0:1
3:1:2
0:0
4:1:2
1:0
5:1:3
1:0
6:1:4
1:0
7:1:5
1:-1
8:1:5
2:-1
9:1:5
2:-1
10:1:5
2:-1
11:1:5
2:-1
12:1:5
2:-1
13:1:5
2:-1
14:1:5
2:-1
14:1:5
2:-1
14:1:5
2:-1
14:1:5
2:-1
14:1:5
2:-1
14:1:5
2:-1
14:1:5
2:-1
14:1:5
2:-1
14:1:5
2:-1
14:1:5
2:-1
14:1:5
2:-1
2:10:5
0:-1
2:4:5
0:-1
0:3:5
-1:-1
1:1:4
-1:0
2:1:3
0:0
3:1:3
0:0
4:1:3
1:0
5:1:4
1:0
6:1:5
1:-1
0:1:5
-1:-1
2:2:4
0:0
3:1:4
0:0
4:1:4
1:0
5:1:5
1:-1
6:1:5
1:-1
7:1:5
1:-1
8:1:5
2:-1
9:1:5
2:-1
10:1:5
2:-1
11:1:5
2:-1
12:1:5
2:-1
13:1:5
2:-1
14:1:5
2:-1
14:1:5
2:-1
14:1:5
2:-1
0:1:5
-1:-1
0:5:4
-1:-1
5:4:3
1:0
5:1:4
1:0
5:1:5
1:-1
5:1:5
1:-1
5:1:5
1:-1
6:1:5
1:-1
7:1:5
1:-1
7:1:5
1:-1
8:1:5
2:-1
9:1:5
2:-1
10:1:5
2:-1
11:1:5
2:-1
12:1:5
2:-1
13:1:5
2:-1
14:1:5
2:-1
14:1:5
2:-1
14:1:5
2:-1
14:1:5
2:-1
14:1:5
2:-1
14:1:5
2:-1
14:1:5
2:-1
14:1:5
2:-1
14:1:5
2:-1
14:1:5
2:-1
14:1:5
2:-1
7:6:5
1:-1
7:1:5
1:-1
7:1:5
1:-1
7:1:5
1:-1
7:1:5
1:-1
7:1:5
1:-1
7:1:5
1:-1
7:1:5
1:-1
8:1:5
2:-1
9:1:5
2:-1
10:1:5
2:-1
11:1:5
2:-1
12:1:5
2:-1
13:1:5
2:-1
14:1:5
2:-1
14:1:5
2:-1
14:1:5
2:-1
14:1:5
2:-1
14:1:5
2:-1
14:1:5
2:-1
14:1:5
2:-1
0:1:5
-1:-1
2:2:4
0:0
3:1:4
0:0
4:8:4
1:0
5:1:5
1:-1
6:1:5
1:-1
7:1:5
1:-1
7:1:5
1:-1
7:1:5
1:-1
7:1:5
1:-1
7:1:5
1:-1
8:1:5
2:-1
9:1:5
2:-1
10:1:5
2:-1
11:1:5
2:-1
12:1:5
2:-1
13:1:5
2:-1
14:1:5
2:-1
14:1:5
2:-1
14:1:5
2:-1
14:1:5
2:-1
14:1:5
2:-1
14:1:5
2:-1
14:1:5
2:-1
14:1:5
2:-1
14:1:5
2:-1
14:1:5
2:-1
14:1:5
2:-1
9:5:5
2:-1
9:1:5
2:-1
9:1:5
2:-1
9:1:5
2:-1
9:1:5
2:-1
9:1:5
2:-1
9:1:5
2:-1
9:1:5
2:-1
9:1:5
2:-1
9:1:5
2:-1
10:1:5
2:-1
11:1:5
2:-1
12:1:5
2:-1
13:1:5
2:-1
14:1:5
2:-1
14:1:5
2:-1
14:1:5
2:-1
14:1:5
2:-1
14:1:5
2:-1
14:1:5
2:-1
14:1:5
2:-1
14:1:5
2:-1
14:1:5
2:-1
14:1:5
2:-1
14:1:5
2:-1
2:11:5
0:-1
2:1:5
0:-1
2:1:5
0:-1
3:1:5
0:-1
4:1:5
1:-1
5:1:5
1:-1
6:1:5
1:-1
7:1:5
1:-1
8:1:5
2:-1
9:1:5
2:-1
0:1:5
-1:-1
2:2:4
0:0
3:1:4
0:0
4:1:4
1:0
5:1:5
1:-1
6:1:5
1:-1
7:1:5
1:-1
8:1:5
2:-1
9:1:5
2:-1
10:1:5
2:-1
11:1:5
2:-1
12:1:5
2:-1
13:1:5
2:-1
14:1:5
2:-1
14:4:5
2:0
14:6:6
2:1
14:7:8
2:0
14:6:9
2:0
14:5:10
2:0
14:6:11
2:0
14:6:12
2:0
14:6:12
2:0
2:6:12
0:0
8:6:12
2:0
14:6:12
2:0
14:6:12
2:0
14:5:12
2:0
14:6:12
2:0
14:6:12
2:0
14:6:12
2:0
14:6:12
2:0
14:5:12
2:0
14:6:12
2:0
2:6:12
0:0
8:6:12
2:0
13:5:12
2:0
14:6:12
2:0
14:6:12
2:0
14:6:12
2:0
14:5:12
2:0
14:6:12
2:0
14:6:12
2:0
14:6:12
2:0
14:6:12
2:0
0:4:12
-1:0
7:7:11
1:0
13:6:12
2:0
14:6:12
2:0
14:5:12
2:0
14:6:12
2:0
14:7:12
2:0
14:6:12
2:0
14:5:12
2:0
14:6:12
2:0
14:6:12
2:0
2:6:12
0:0
0:6:12
-1:0
1:18:11
-1:0
0:15:10
-1:0
0:55:9
-1:-1
2:23:8
0:-1
2:13:8
0:-1
0:13:8
-1:-1
5:6:7
1:-1
10:5:7
2:0
14:6:8
2:0
14:6:9
2:0
0:5:10
-1:-1
2:10:9
0:-1
0:18:9
-1:-1
0:5:8
-1:-1
6:6:7
1:0
12:6:8
2:0
14:5:9
2:0
14:6:10
2:0
0:6:11
-1:-1
2:13:10
0:-1
0:12:10
-1:-1
6:6:9
1:0
12:6:10
2:0
4:7:11
1:-1
9:5:11
2:0
0:10:12
-1:-1
1:13:11
-1:-1
0:5:10
-1:-1
6:6:9
1:0
12:6:10
2:0
14:6:11
2:0
14:6:12
2:0
4:15:12
1:-1
0:4:12
-1:-1
6:6:11
1:0
12:6:12
2:0
14:6:12
2:0
14:6:12
2:0
0:13:12
-1:-1
0:7:11
-1:-1
0:4:10
-1:0
7:7:9
1:0
12:5:10
2:0
14:6:11
2:0
0:7:12
-1:-1
0:5:11
-1:-1
1:4:10
-1:-1
6:6:9
1:0
12:6:10
2:0
14:6:11
2:0
14:6:12
2:0
8:7:12
2:-1
8:6:12
2:0
12:6:12
2:0
0:6:12
-1:0
6:6:11
1:0
7:8:12
1:-1
7:6:12
1:0
12:6:12
2:0
14:6:12
2:0
14:6:12
2:0
7:8:12
1:-1
7:6:12
1:0
12:6:12
2:0
14:6:12
2:0
14:6:12
2:0
14:6:12
2:0
4:6:12
1:-1
10:6:12
2:0
14:6:12
2:0
14:5:12
2:0
14:6:12
2:0
14:6:12
2:0
14:6:12
2:0
14:5:12
2:0
14:6:12
2:0
14:6:12
2:0
14:5:12
2:0
3:6:12
0:-1
9:6:12
2:0
14:6:12
2:0
14:6:12
2:0
14:6:12
2:0
14:5:12
2:0
14:6:12
2:0
14:6:12
2:0
14:6:12
2:0
14:5:12
2:0
14:6:12
2:0
4:7:12
1:-1
10:6:12
2:0
14:5:12
2:0
14:6:12
2:0
14:6:12
2:0
14:6:12
2:0
14:6:12
2:0
14:7:12
2:0
14:6:12
2:0
14:6:12
2:0
0:6:12
-1:0
7:7:11
1:0
13:6:12
2:0
14:6:12
2:0
14:6:12
2:0
14:6:12
2:0
14:5:12
2:0
14:7:12
2:0
14:6:12
2:0
14:5:12
2:0
14:6:12
2:0
2:6:12
0:0
8:6:12
2:0
13:5:12
2:0
14:6:12
2:0
14:6:12
2:0
14:6:12
2:0
14:5:12
2:0
14:6:12
2:0
14:6:12
2:0
14:6:12
2:0
14:6:12
2:0
0:4:12
-1:0
7:7:11
1:0
13:6:12
2:0
14:6:12
2:0
14:5:12
2:0
14:5:12
2:0
14:6:12
2:0
14:6:12
2:0
14:6:12
2:0
14:7:12
2:0
14:6:12
2:0
0:4:12
-1:0
7:7:11
1:0
2:18:12
0:-1
0:13:12
-1:-1
0:53:11
-1:-1
0:17:10
-1:-1
2:21:9
0:-1
0:18:9
-1:-1
5:6:8
1:-1
11:6:8
2:0
14:6:9
2:0
14:6:10
2:0
0:10:11
-1:-1
2:19:10
0:-1
0:12:10
-1:-1
6:6:9
1:0
12:6:10
2:0
14:6:11
2:0
14:6:12
2:0
0:9:12
-1:-1
0:14:11
-1:-1
0:15:10
-1:-1
7:7:9
1:0
13:6:10
2:0
4:6:11
1:-1
9:5:11
2:0
0:15:12
-1:-1
0:9:11
-1:-1
0:11:10
-1:-1
6:6:9
1:0
12:6:10
2:0
14:6:11
2:0
14:6:12
2:0
2:10:12
0:-1
0:11:12
-1:-1
0:4:11
-1:-1
6:6:10
1:0
12:6:11
2:0
14:6:12
2:0
14:6:12
2:0
2:15:12
0:-1
0:13:12
-1:-1
0:5:11
-1:-1
2:6:10
0:0
8:6:10
2:0
14:6:11
2:0
0:6:12
-1:0
2:10:11
0:-1
2:5:11
0:-1
0:6:11
-1:-1
6:6:10
1:0
12:6:11
2:0
14:6:12
2:0
14:6:12
2:0
6:9:12
1:-1
6:6:12
1:0
12:6:12
2:0
0:6:12
-1:0
6:6:11
1:0
4:10:12
1:-1
6:6:12
1:0
12:6:12
2:0
14:6:12
2:0
14:6:12
2:0
6:7:12
1:-1
6:6:12
1:0
12:6:12
2:0
14:6:12
2:0
14:6:12
2:0
14:6:12
2:0
4:6:12
1:-1
10:6:12
2:0
14:6:12
2:0
14:5:12
2:0
14:6:12
2:0
14:6:12
2:0
14:6:12
2:0
14:5:12
2:0
14:6:12
2:0
14:5:12
2:0
14:6:12
2:0
3:6:12
0:-1
9:6:12
2:0
14:6:12
2:0
14:6:12
2:0
14:6:12
2:0
14:5:12
2:0
14:6:12
2:0
14:6:12
2:0
14:6:12
2:0
14:5:12
2:0
14:5:12
2:0
2:6:12
0:0
8:6:12
2:0
14:6:12
2:0
14:6:12
2:0
14:6:12
2:0
14:6:12
2:0
14:6:12
2:0
14:5:12
2:0
14:6:12
2:0
14:6:12
2:0
14:6:12
2:0
2:5:12
0:-1
8:6:12
2:0
14:6:12
2:0
14:6:12
2:0
14:5:12
2:0
14:6:12
2:0
14:6:12
2:0
14:6:12
2:0
14:6:12
2:0
14:5:12
2:0
14:6:12
2:0
2:6:12
0:0
8:6:12
2:0
13:5:12
2:0
14:6:12
2:0
14:6:12
2:0
14:5:12
2:0
14:6:12
2:0
14:6:12
2:0
14:6:12
2:0
14:6:12
2:0
14:6:12
2:0
0:4:12
-1:0
7:7:11
1:0
13:6:12
2:0
14:6:12
2:0
14:5:12
2:0
14:6:12
2:0
14:6:12
2:0
14:6:12
2:0
14:5:12
2:0
14:6:12
2:0
14:6:12
2:0
0:5:12
-1:0
7:7:11
1:0
2:15:12
0:-1
5:14:12
1:0
0:5:12
-1:-1
0:53:11
-1:-1
0:23:10
-1:-1
0:16:9
-1:0
0:1:8
-1:-1
2:2:7
0:0
3:1:7
0:-1
4:1:7
1:-1
5:1:7
1:-1
6:1:7
1:-1
7:1:7
1:-1
8:1:7
2:-1
9:1:7
2:-1
10:1:7
2:-1
11:1:7
2:-1
12:1:7
2:-1
13:1:7
2:-1
14:1:7
2:-1
14:1:7
2:-1
14:1:7
2:-1
14:1:7
2:-1
14:1:7
2:-1
14:1:7
2:-1
14:1:7
2:-1
14:1:7
2:-1
0:1:7
-1:-1
13:1:6
2:-1
0:1:6
-1:-1
0:14:5
-1:-1
0:14:4
-1:-1
1:1:3
-1:0
2:1:2
0:0
3:1:2
0:0
4:1:2
1:0
5:1:3
1:0
6:1:4
1:0
7:1:5
1:-1
8:1:5
2:-1
9:1:5
2:-1
10:1:5
2:-1
11:1:5
2:-1
12:1:5
2:-1
13:1:5
2:-1
14:1:5
2:-1
14:1:5
2:-1
14:1:5
2:-1
14:1:5
2:-1
14:1:5
2:-1
14:1:5
2:-1
14:1:5
2:-1
14:1:5
2:-1
14:1:5
2:-1
14:1:5
2:-1
14:1:5
2:-1
1:7:5
-1:-1
0:14:4
-1:0
1:1:3
-1:0
2:1:2
0:0
3:1:2
0:0
4:1:2
1:0
5:1:3
1:0
6:1:4
1:0
7:1:5
1:-1
8:1:5
2:-1
9:1:5
2:-1
10:1:5
2:-1
11:1:5
2:-1
12:1:5
2:-1
13:1:5
2:-1
14:1:5
2:-1
0:1:5
-1:-1
2:2:4
0:0
3:1:4
0:0
4:1:4
1:0
5:1:5
1:-1
6:1:5
1:-1
7:1:5
1:-1
8:1:5
2:-1
0:1:5
-1:-1
0:10:4
-1:-1
0:15:3
-1:-1
1:1:2
-1:0
2:1:1
0:1
3:1:2
0:0
4:1:2
1:0
5:1:3
1:0
6:1:4
1:0
7:1:5
1:-1
8:1:5
2:-1
9:1:5
2:-1
10:1:5
2:-1
11:1:5
2:-1
12:1:5
2:-1
13:1:5
2:-1
14:1:5
2:-1
14:1:5
2:-1
14:1:5
2:-1
14:1:5
2:-1
14:1:5
2:-1
14:1:5
2:-1
14:1:5
2:-1
14:1:5
2:-1
14:1:5
2:-1
14:1:5
2:-1
0:1:5
-1:-1
4:14:4
1:-1
0:12:4
-1:-1
1:1:3
-1:0
2:1:2
0:0
3:1:2
0:0
4:1:2
1:0
5:1:3
1:0
6:1:4
1:0
7:1:5
1:-1
8:1:5
2:-1
9:2:5
2:-1
10:1:5
2:-1
11:1:5
2:-1
12:1:5
2:-1
13:1:5
2:-1
13:1:5
2:-1
13:1:5
2:-1
13:1:5
2:-1
13:1:5
2:-1
13:1:5
2:-1
13:1:5
2:-1
13:1:5
2:-1
13:1:5
2:-1
13:1:5
2:-1
14:1:5
2:-1
0:1:5
-1:-1
0:13:4
-1:-1
0:14:3
-1:-1
1:1:2
-1:0
2:1:1
0:1
3:1:2
0:0
0:1:2
-1:-1
2:2:1
0:1
3:1:2
0:0
4:1:2
1:0
5:1:3
1:0
6:1:4
1:0
7:1:5
1:-1
8:1:5
2:-1
9:1:5
2:-1
10:1:5
2:-1
11:1:5
2:-1
12:1:5
2:-1
13:1:5
2:-1
14:1:5
2:-1
14:1:5
2:-1
14:1:5
2:-1
14:1:5
2:-1
14:1:5
2:-1
14:1:5
2:-1
0:1:5
-1:-1
2:10:4
0:-1
2:8:4
0:0
0:3:4
-1:-1
1:1:3
-1:0
2:1:2
0:0
3:1:2
0:0
4:1:2
1:0
5:1:3
1:0
6:1:4
1:0
7:1:5
1:-1
8:1:5
2:-1
9:1:5
2:-1
10:1:5
2:-1
11:1:5
2:-1
12:1:5
2:-1
13:1:5
2:-1
14:1:5
2:-1
14:1:5
2:-1
14:1:5
2:-1
14:1:5
2:-1
14:1:5
2:-1
14:1:5
2:-1
14:1:5
2:-1
14:1:5
2:-1
14:1:5
2:-1
14:1:5
2:-1
14:1:5
2:-1
0:10:5
-1:-1
0:12:4
-1:-1
1:1:3
-1:0
2:1:2
0:0
3:1:2
0:0
4:1:2
1:0
5:1:3
1:0
6:1:4
1:0
7:1:5
1:-1
8:1:5
2:-1
9:1:5
2:-1
10:1:5
2:-1
11:1:5
2:-1
12:1:5
2:-1
13:1:5
2:-1
14:1:5
2:-1
14:1:5
2:-1
14:1:5
2:-1
14:1:5
2:-1
0:1:5
-1:-1
2:2:4
0:0
3:1:4
0:0
4:1:4
1:0
5:1:5
1:-1
6:1:5
1:-1
0:11:5
-1:-1
0:5:4
-1:0
1:1:3
-1:0
2:1:2
0:0
3:1:2
0:0
4:1:2
1:0
5:1:3
1:0
6:1:4
1:0
7:1:5
1:-1
8:1:5
2:-1
9:1:5
2:-1
10:1:5
2:-1
11:1:5
2:-1
12:1:5
2:-1
13:1:5
2:-1
14:1:5
2:-1
14:1:5
2:-1
14:1:5
2:-1
14:1:5
2:-1
14:1:5
2:-1
14:1:5
2:-1
14:1:5
2:-1
14:1:5
2:-1
14:1:5
2:-1
14:1:5
2:-1
14:1:5
2:-1
0:7:5
-1:-1
0:9:4
-1:0
1:1:3
-1:0
2:1:2
0:0
3:1:2
0:0
4:1:2
1:0
5:1:3
1:0
6:1:4
1:0
7:1:5
1:-1
8:1:5
2:-1
9:1:5
2:-1
10:1:5
2:-1
11:1:5
2:-1
12:1:5
2:-1
13:1:5
2:-1
14:1:5
2:-1
14:1:5
2:-1
14:1:5
2:-1
14:1:5
2:-1
14:1:5
2:-1
14:1:5
2:-1
14:1:5
2:-1
14:1:5
2:-1
14:1:5
2:-1
14:1:5
2:-1
0:1:5
-1:-1
4:9:4
1:-1
3:3:4
0:-1
3:1:4
0:0
3:1:4
0:0
4:1:4
1:0
4:1:5
1:-1
5:1:5
1:-1
6:1:5
1:-1
0:1:5
-1:-1
2:2:4
0:0
3:1:4
0:0
4:1:4
1:0
5:1:5
1:-1
6:1:5
1:-1
7:1:5
1:-1
8:1:5
2:-1
9:1:5
2:-1
10:1:5
2:-1
11:1:5
2:-1
12:1:5
2:-1
13:1:5
2:-1
14:1:5
2:-1
14:1:5
2:-1
14:1:5
2:-1
0:1:5
-1:-1
2:9:4
0:-1
4:2:4
1:-1
4:1:4
1:0
4:1:5
1:-1
4:1:5
1:-1
5:1:5
1:-1
5:1:5
1:-1
6:1:5
1:-1
7:1:5
1:-1
8:1:5
2:-1
9:1:5
2:-1
10:1:5
2:-1
11:1:5
2:-1
12:1:5
2:-1
13:1:5
2:-1
14:1:5
2:-1
14:1:5
2:-1
14:1:5
2:-1
14:1:5
2:-1
14:1:5
2:-1
14:1:5
2:-1
14:1:5
2:-1
14:1:5
2:-1
14:1:5
2:-1
14:1:5
2:-1
14:1:5
2:-1
7:8:5
1:-1
7:1:5
1:-1
7:1:5
1:-1
7:1:5
1:-1
7:1:5
1:-1
7:1:5
1:-1
7:1:5
1:-1
7:1:5
1:-1
8:1:5
2:-1
9:1:5
2:-1
10:1:5
2:-1
11:1:5
2:-1
12:1:5
2:-1
13:1:5
2:-1
14:1:5
2:-1
14:1:5
2:-1
14:1:5
2:-1
14:1:5
2:-1
14:1:5
2:-1
14:1:5
2:-1
14:1:5
2:-1
0:1:5
-1:-1
2:2:4
0:0
3:1:4
0:0
4:9:4
1:0
5:1:5
1:-1
6:1:5
1:-1
6:1:5
1:-1
6:1:5
1:-1
6:1:5
1:-1
6:1:5
1:-1
7:1:5
1:-1
8:1:5
2:-1
9:1:5
2:-1
10:1:5
2:-1
11:1:5
2:-1
12:1:5
2:-1
13:1:5
2:-1
14:1:5
2:-1
14:1:5
2:-1
14:1:5
2:-1
14:1:5
2:-1
14:1:5
2:-1
14:1:5
2:-1
14:1:5
2:-1
14:1:5
2:-1
14:1:5
2:-1
14:1:5
2:-1
0:1:5
-1:-1
11:4:4
2:-1
11:1:4
2:0
11:1:5
2:-1
11:1:5
2:-1
11:1:5
2:-1
11:1:5
2:-1
11:1:5
2:-1
11:1:5
2:-1
11:1:5
2:-1
11:1:5
2:-1
11:1:5
2:-1
12:1:5
2:-1
12:1:5
2:-1
13:1:5
2:-1
14:1:5
2:-1
14:1:5
2:-1
14:1:5
2:-1
14:1:5
2:-1
14:1:5
2:-1
14:1:5
2:-1
14:1:5
2:-1
14:1:5
2:-1
14:1:5
2:-1
14:1:5
2:-1
14:1:5
2:-1
8:7:5
2:-1
8:1:5
2:-1
8:1:5
2:-1
8:1:5
2:-1
8:1:5
2:-1
8:1:5
2:-1
8:1:5
2:-1
8:1:5
2:-1
8:1:5
2:-1
9:1:5
2:-1
0:1:5
-1:-1
2:2:4
0:0
3:1:4
0:0
4:1:4
1:0
5:1:5
1:-1
6:1:5
1:-1
7:1:5
1:-1
8:1:5
2:-1
9:1:5
2:-1
10:1:5
2:-1
11:1:5
2:-1
12:1:5
2:-1
13:1:5
2:-1
14:1:5
2:-1
14:6:5
2:1
14:6:7
2:0
14:6:8
2:0
14:6:9
2:0
14:5:10
2:0
14:6:11
2:0
14:6:12
2:0
14:6:12
2:0
2:5:12
0:-1
8:6:12
2:0
14:6:12
2:0
14:6:12
2:0
14:5:12
2:0
14:6:12
2:0
14:6:12
2:0
14:6:12
2:0
14:6:12
2:0
14:5:12
2:0
14:6:12
2:0
0:4:12
-1:0
7:7:11
1:0
12:5:12
2:0
14:6:12
2:0
14:6:12
2:0
14:5:12
2:0
14:5:12
2:0
14:5:12
2:0
14:7:12
2:0
14:6:12
2:0
14:6:12
2:0
14:5:12
2:0
5:6:12
1:-1
11:6:12
2:0
14:6:12
2:0
14:5:12
2:0
14:6:12
2:0
14:6:12
2:0
14:6:12
2:0
14:6:12
2:0
14:5:12
2:0
14:6:12
2:0
14:6:12
2:0
5:6:12
1:-1
2:16:12
0:-1
3:7:12
0:-1
2:9:12
0:-1
9:12:12
2:-1
0:9:12
-1:0
3:4:11
0:-1
0:2:11
-1:-1
10:5:10
2:-1
1:4:10
-1:0
3:9:9
0:-1
5:8:9
1:0
5:3:10
1:-1
6:21:10
1:0
6:9:11
1:0
1:6:12
-1:0
3:1:11
0:-1
9:1:11
2:-1
12:4:11
2:0
0:4:12
-1:-1
2:6:11
0:-1
7:1:11
1:-1
0:8:11
-1:0
6:3:10
1:-1
14:5:10
2:0
14:4:11
2:0
14:9:12
2:0
0:11:12
-1:0
5:3:11
1:-1
11:2:11
2:-1
0:11:11
-1:0
7:3:10
1:-1
9:2:10
2:-1
11:2:10
2:-1
13:5:10
2:0
14:5:11
2:0
0:2:12
-1:-1
0:9:11
-1:-1
1:23:10
-1:-1
2:12:9
0:-1
4:20:9
1:-1
1:24:9
-1:-1
4:32:8
1:-1
0:43:8
-1:-1
3:51:7
0:-1
2:7:7
0:-1
2:2:7
0:-1
2:2:7
0:-1
0:0:7
-1:-1
2:2:6
0:-1
0:52:6
-1:-1
2:3:5
0:-1
1:50:5
-1:-1
0:21:4
-1:-1
2:36:3
0:0
0:17:3
-1:-1
2:19:2
0:0
4:8:2
1:-1
0:4:2
-1:-1
0:3:1
-1:-1
0:1:1
-1:-1
2:6:1
0:1
0:4:2
-1:-1
0:28:1
-1:-1
1:13:1
-1:-1
0:6:1
-1:-1
2:3:1
0:-1
4:0:1
1:-1
1:0:1
-1:-1
4:4:1
1:-1
3:1:1
0:-1
2:0:1
0:-1
2:5:1
0:-1
2:6:1
0:-1
2:0:1
0:-1
2:5:1
0:-1
3:4:1
0:-1
0:5:1
-1:-1
3:4:1
0:-1
0:12:1
-1:-1
0:0:1
-1:-1
0:5:1
-1:-1
0:1:1
-1:-1
5:4:1
1:-1
0:6:1
-1:-1
0:12:1
-1:1
0:4:1
-1:-1
3:1:1
0:-1
0:7:1
-1:-1
6:2:1
1:-1
0:2:1
-1:-1
2:4:1
0:1
2:1:2
0:-1
0:1:2
-1:-1
0:6:1
-1:1
2:3:1
0:-1
2:6:1
0:-1
0:2:1
-1:-1
2:5:1
0:-1
3:0:1
0:-1
3:6:1
0:-1
3:0:1
0:-1
2:4:1
0:-1
2:5:1
0:-1
0:3:1
-1:-1
0:5:1
-1:-1
0:15:1
-1:1
2:2:1
0:-1
1:4:1
-1:-1
2:1:1
0:-1
3:1:1
0:-1
0:1:1
-1:-1
1:1:1
-1:-1
3:3:1
0:-1
2:5:1
0:-1
2:4:1
0:-1
3:2:1
0:-1
2:2:1
0:1
3:4:2
0:-1
5:4:2
1:0
1:4:3
-1:-1
1:4:2
-1:0
2:1:1
0:-1
2:0:1
0:-1
1:2:1
-1:-1
3:2:1
0:-1
5:4:1
1:-1
1:3:1
-1:-1
3:1:1
0:-1
0:1:1
-1:-1
0:3:1
-1:1
1:6:1
-1:-1
0:3:1
-1:-1
2:1:1
0:-1
1:3:1
-1:1
1:1:1
-1:-1
1:2:1
-1:-1
2:3:1
0:-1
0:4:1
-1:-1
2:1:1
0:-1
3:2:1
0:-1
2:2:1
0:-1
3:4:1
0:-1
0:1:1
-1:-1
3:1:1
0:-1
4:1:1
1:-1
2:4:1
0:-1
3:1:1
0:-1
4:2:1
1:-1
0:1:1
-1:-1
0:3:1
-1:1
3:7:1
0:-1
4:4:1
1:-1
6:1:1
1:-1
0:2:1
-1:-1
3:1:1
0:-1
3:1:1
0:-1
1:1:1
-1:-1
0:2:1
-1:1
0:2:1
-1:-1
0:1:1
-1:-1
0:3:1
-1:1
5:2:1
1:-1
0:3:1
-1:-1
5:3:1
1:-1
0:3:1
-1:1
0:4:1
-1:-1
1:1:1
-1:-1
0:1:1
-1:-1
0:1:1
-1:-1
0:1:1
-1:-1
0:3:1
-1:1
0:3:1
-1:-1
0:2:1
-1:-1
0:2:1
-1:1
2:2:1
0:1
0:2:2
-1:0
1:0:1
-1:-1
2:1:1
0:-1
0:2:1
-1:-1
0:1:1
-1:-1
0:2:1
-1:1
1:2:1
-1:1
0:1:1
-1:-1
0:2:1
-1:-1
1:1:1
-1:-1
1:3:1
-1:1
1:1:1
-1:-1
3:2:1
0:-1
3:1:1
0:-1
3:2:1
0:-1
0:1:1
-1:-1
0:2:1
-1:1
0:2:1
-1:-1
1:3:1
-1:-1
1:2:1
-1:-1
1:1:1
-1:-1
0:0:1
-1:-1
0:1:1
-1:-1
2:1:1
0:-1
1:3:1
-1:1
2:1:1
0:-1
0:2:1
-1:-1
3:0:1
0:-1
3:1:1
0:-1
1:2:1
-1:-1
4:1:1
1:-1
3:1:1
0:-1
0:3:1
-1:1
1:1:1
-1:-1
1:3:1
-1:-1
1:1:1
-1:-1
4:1:1
1:-1
4:1:1
1:-1
3:1:1
0:-1
0:2:1
-1:1
1:1:1
-1:-1
0:2:1
-1:-1
2:1:1
0:-1
1:2:1
-1:-1
0:1:1
-1:-1
2:1:1
0:-1
1:3:1
-1:-1
0:2:1
-1:-1
1:1:1
-1:-1
2:1:1
0:-1
2:1:1
0:-1
2:5:1
0:1
2:1:2
0:-1
0:1:2
-1:-1
2:2:1
0:1
0:1:2
-1:-1
3:1:1
0:-1
1:3:1
-1:1
2:2:1
0:-1
0:2:1
-1:-1
1:1:1
-1:-1
2:1:1
0:-1
0:4:1
-1:1
4:1:1
1:-1
2:5:1
0:-1
0:3:1
-1:1
0:1:1
-1:-1
4:2:1
1:1
0:1:2
-1:-1
0:7:1
-1:1
3:1:1
0:-1
7:5:1
1:1
0:2:2
-1:0
0:2:1
-1:1
1:2:1
-1:1
0:6:1
-1:-1
2:3:1
0:-1
6:4:1
1:-1
3:6:1
0:1
0:6:2
-1:0
8:3:1
2:1
14:1:3
2:0
10:0:4
2:-1
14:2:4
2:0
1:0:5
-1:-1
14:0:4
2:-1
2:2:4
0:-1
3:2:4
0:-1
3:7:4
0:0
2:2:4
0:-1
0:4:4
-1:0
3:2:3
0:-1
2:5:3
0:-1
1:3:3
-1:-1
1:3:2
-1:-1
1:6:1
-1:1
4:2:1
1:-1
5:4:1
1:-1
1:2:1
-1:1
5:3:1
1:-1
5:4:1
1:1
0:1:2
-1:-1
0:1:1
-1:-1
1:1:1
-1:-1
0:2:1
-1:-1
0:3:1
-1:-1
2:1:1
0:-1
0:0:1
-1:-1
4:7:1
1:-1
9:3:1
2:-1
14:2:1
2:-1
2:1:1
0:-1
0:1:1
-1:-1
2:4:1
0:-1
4:3:1
1:-1
3:3:1
0:-1
6:3:1
1:-1
3:11:1
0:1
0:3:2
-1:-1
3:4:1
0:1
0:1:2
-1:-1
1:6:1
-1:-1
2:2:1
0:1
1:2:2
-1:-1
0:2:1
-1:-1
1:1:1
-1:1
1:6:1
-1:1
4:2:1
1:1
3:2:2
0:-1
1:4:2
-1:-1
3:3:1
0:-1
3:4:1
0:-1
0:0:1
-1:-1
4:2:1
1:-1
0:2:1
-1:-1
0:5:1
-1:-1
0:4:1
-1:-1
0:4:1
-1:1
1:1:1
-1:-1
2:5:1
0:-1
8:3:1
2:-1
9:3:1
2:-1
12:4:1
2:1
3:2:3
0:-1
0:1:3
-1:-1
0:1:2
-1:-1
0:0:1
-1:-1
0:1:1
-1:-1
0:1:1
-1:-1
0:8:1
-1:-1
0:5:1
-1:1
0:7:1
-1:1
0:6:1
-1:1
0:5:1
-1:-1
0:7:1
-1:1
0:6:1
-1:1
0:4:1
-1:1
0:5:1
-1:1
0:6:1
-1:1
0:5:1
-1:1
0:7:1
-1:1
0:6:1
-1:1
0:5:1
-1:-1
0:6:1
-1:-1
0:6:1
-1:1
0:6:1
-1:1
0:5:1
-1:-1
3:6:1
0:1
0:1:2
-1:0
2:4:1
0:-1
0:1:1
-1:-1
0:5:1
-1:1
0:5:1
-1:1
0:3:1
-1:1
4:3:1
1:-1
0:0:1
-1:-1
0:3:1
-1:-1
0:1:1
-1:-1
0:3:1
-1:1
0:2:1
-1:-1
1:3:1
-1:-1
0:1:1
-1:-1
0:3:1
-1:-1
0:2:1
-1:-1
0:3:1
-1:-1
0:0:1
-1:-1
1:2:1
-1:-1
0:1:1
-1:-1
0:8:1
-1:1
0:5:1
-1:1
0:0:1
-1:-1
0:4:1
-1:-1
0:4:1
-1:1
0:6:1
-1:1
1:5:1
-1:1
0:3:1
-1:-1
5:2:1
1:-1
0:2:1
-1:-1
4:3:1
1:1
0:1:2
-1:0
5:2:1
1:-1
0:1:1
-1:-1
0:3:1
-1:1
0:2:1
-1:-1
0:2:1
-1:1
2:2:1
0:-1
0:1:1
-1:-1
6:5:1
1:-1
3:5:1
0:-1
0:4:1
-1:1
5:6:1
1:-1
9:2:1
2:-1
10:1:1
2:1
12:2:3
2:-1
0:4:3
-1:0
0:1:2
-1:-1
3:2:1
0:-1
0:22:1
-1:-1
1:18:1
-1:1
0:3:1
-1:-1
2:22:1
0:1
1:8:2
-1:-1
0:4:1
-1:1
0:33:1
-1:1
0:21:1
-1:1
3:6:1
0:-1
3:8:1
0:-1
2:8:1
0:-1
4:8:1
1:-1
0:11:1
-1:-1
2:4:1
0:-1
4:10:1
1:1
2:9:2
0:-1
1:5:2
-1:-1
5:10:1
1:-1
0:12:1
-1:-1
2:4:1
0:-1
2:10:1
0:-1
4:3:1
1:1
0:10:2
-1:-1
0:5:1
-1:1
3:2:1
0:1
0:7:2
-1:-1
6:3:1
1:1
0:2:2
-1:-1
0:4:1
-1:1
0:3:1
-1:1
0:14:1
-1:1
0:21:1
-1:1
3:20:1
0:1
1:4:2
-1:-1
5:14:1
1:-1
1:9:1
-1:1
0:7:1
-1:1
0:2:1
-1:-1
0:5:1
-1:-1
2:24:1
0:-1
6:8:1
1:-1
0:6:1
-1:1
5:24:1
1:1
8:8:2
2:-1
3:13:2
0:1
0:20:3
-1:0
6:2:2
1:-1
14:0:2
2:-1
9:0:2
2:-1
13:1:2
2:-1
2:0:2
0:-1
0:1:2
-1:-1
0:16:1
-1:-1
1:4:1
-1:1
3:5:1
0:-1
2:9:1
0:1
4:5:2
1:-1
1:7:2
-1:-1
2:5:1
0:-1
4:8:1
1:-1
5:7:1
1:-1
0:2:1
-1:-1
2:7:1
0:-1
1:7:1
-1:-1
1:7:1
-1:-1
0:4:1
-1:1
Heartbeat CPU 0 instructions: 10000003 cycles: 11927484 heartbeat IPC: 0.8384 cumulative IPC: 0.773377 (Simulation time: 0 hr 0 min 38 sec) 
0:5:1
-1:-1
11:19:1
2:-1
1:13:1
-1:1
6:6:1
1:-1
3:6:1
0:-1
4:12:1
1:-1
3:29:1
0:1
0:27:2
-1:-1
0:28:1
-1:1
0:21:1
-1:-1
0:8:1
-1:1
0:53:1
-1:-1
0:17:1
-1:1
0:1:1
-1:-1
0:21:1
-1:1
0:28:1
-1:-1
0:2:1
-1:-1
0:5:1
-1:1
0:1:1
-1:-1
0:1:1
-1:-1
0:9:1
-1:-1
0:5:1
-1:1
0:7:1
-1:1
0:6:1
-1:1
0:6:1
-1:1
0:7:1
-1:1
0:6:1
-1:1
0:5:1
-1:1
0:6:1
-1:1
0:7:1
-1:1
0:6:1
-1:1
0:7:1
-1:1
0:7:1
-1:1
0:7:1
-1:1
0:8:1
-1:1
0:6:1
-1:1
0:7:1
-1:1
0:7:1
-1:1
4:11:1
1:1
0:1:2
-1:-1
0:7:1
-1:1
0:7:1
-1:1
0:7:1
-1:1
0:6:1
-1:1
0:7:1
-1:1
0:7:1
-1:1
0:4:1
-1:1
0:6:1
-1:1
0:12:1
-1:1
0:12:1
-1:1
0:5:1
-1:1
0:6:1
-1:1
0:6:1
-1:1
0:8:1
-1:1
0:7:1
-1:1
0:1:1
-1:-1
0:5:1
-1:1
0:5:1
-1:-1
0:1:1
-1:-1
0:6:1
-1:1
3:8:1
0:1
0:14:2
-1:1
1:3:2
-1:0
0:3:1
-1:1
5:3:1
1:1
0:1:2
-1:-1
3:8:1
0:1
0:5:2
-1:1
5:3:2
1:0
0:2:3
-1:-1
2:19:2
0:1
0:6:3
-1:-1
5:13:2
1:-1
0:4:2
-1:1
11:6:2
2:-1
2:3:2
0:-1
1:21:2
-1:1
0:19:2
-1:0
2:4:1
0:-1
10:23:1
2:1
0:8:3
-1:-1
1:32:2
-1:-1
2:10:1
0:-1
2:13:1
0:1
4:5:2
1:0
5:11:3
1:-1
1:3:3
-1:-1
2:16:2
0:0
2:7:2
0:-1
2:8:2
0:-1
0:5:2
-1:0
4:6:1
1:-1
0:16:1
-1:-1
1:7:1
-1:-1
2:8:1
0:1
0:6:2
-1:-1
2:10:1
0:-1
2:5:1
0:-1
2:2:1
0:-1
4:7:1
1:-1
6:1:1
1:-1
0:2:1
-1:-1
0:3:1
-1:-1
2:2:1
0:1
0:1:2
-1:-1
0:14:1
-1:1
2:18:1
0:1
3:15:2
0:-1
4:6:2
1:-1
2:12:2
0:-1
4:14:2
1:-1
0:7:2
-1:-1
0:2:1
-1:-1
2:23:1
0:-1
1:18:1
-1:1
3:2:1
0:-1
0:10:1
-1:1
0:5:1
-1:-1
6:28:1
1:1
8:3:2
2:0
12:22:3
2:0
4:9:4
1:-1
13:0:4
2:-1
14:0:4
2:-1
12:1:4
2:0
14:0:5
2:-1
4:0:5
1:-1
1:5:5
-1:-1
1:11:4
-1:0
5:6:3
1:-1
6:6:3
1:-1
0:7:3
-1:-1
2:8:2
0:-1
2:8:2
0:-1
2:5:2
0:-1
2:4:2
0:-1
2:6:2
0:-1
3:7:2
0:-1
6:3:2
1:0
0:1:3
-1:-1
0:9:2
-1:0
0:2:1
-1:-1
11:20:1
2:1
0:15:3
-1:1
3:8:3
0:-1
4:12:3
1:-1
0:31:3
-1:0
4:35:2
1:0
0:29:3
-1:0
0:8:2
-1:0
2:55:1
0:-1
0:13:1
-1:1
0:1:1
-1:-1
0:20:1
-1:1
0:26:1
-1:-1
0:2:1
-1:-1
0:6:1
-1:1
0:1:1
-1:-1
0:1:1
-1:-1
0:9:1
-1:-1
0:5:1
-1:1
0:7:1
-1:1
0:6:1
-1:1
0:6:1
-1:1
0:7:1
-1:1
0:6:1
-1:1
0:5:1
-1:1
0:6:1
-1:1
0:7:1
-1:1
0:6:1
-1:1
0:7:1
-1:1
0:7:1
-1:1
0:7:1
-1:1
0:8:1
-1:1
0:6:1
-1:1
0:7:1
-1:1
0:7:1
-1:1
0:12:1
-1:1
0:7:1
-1:1
0:7:1
-1:1
0:7:1
-1:1
0:6:1
-1:1
0:7:1
-1:1
0:7:1
-1:1
0:5:1
-1:1
0:7:1
-1:1
0:10:1
-1:-1
2:11:1
0:1
0:6:2
-1:-1
0:6:1
-1:1
0:6:1
-1:1
0:7:1
-1:1
0:1:1
-1:-1
0:7:1
-1:1
0:1:1
-1:-1
0:5:1
-1:1
0:5:1
-1:1
0:5:1
-1:1
0:1:1
-1:-1
3:8:1
0:1
0:13:2
-1:0
1:3:1
-1:1
0:3:1
-1:1
5:3:1
1:1
0:1:2
-1:-1
3:8:1
0:1
0:5:2
-1:1
5:4:2
1:-1
0:2:2
-1:-1
3:21:1
0:1
0:5:2
-1:1
7:15:2
1:-1
8:1:2
2:-1
10:6:2
2:1
2:4:4
0:-1
2:17:4
0:1
0:22:5
-1:0
0:2:4
-1:-1
3:4:3
0:-1
3:22:3
0:1
0:9:4
-1:-1
0:38:3
-1:-1
2:16:2
0:-1
4:7:2
1:0
4:10:3
1:-1
1:7:3
-1:-1
0:16:2
-1:0
2:10:1
0:1
2:6:2
0:-1
1:8:2
-1:-1
0:8:1
-1:-1
0:18:1
-1:1
4:6:1
1:-1
0:7:1
-1:1
0:4:1
-1:-1
1:9:1
-1:1
1:6:1
-1:-1
4:1:1
1:-1
2:7:1
0:-1
6:2:1
1:-1
0:2:1
-1:-1
0:3:1
-1:-1
0:2:1
-1:1
0:14:1
-1:1
2:15:1
0:1
2:17:2
0:0
1:3:2
-1:0
0:16:1
-1:1
5:14:1
1:-1
0:8:1
-1:-1
0:2:1
-1:-1
5:15:1
1:-1
0:24:1
-1:1
3:6:1
0:1
0:11:2
-1:1
0:5:2
-1:-1
7:17:1
1:1
9:2:2
2:-1
0:25:2
-1:0
12:5:1
2:1
0:0:3
-1:-1
14:0:2
2:-1
4:0:2
1:-1
14:0:2
2:-1
0:4:2
-1:-1
0:9:1
-1:-1
0:14:1
-1:-1
0:3:1
-1:-1
2:8:1
0:1
3:5:2
0:0
4:1:2
1:-1
8:4:2
2:-1
7:6:2
1:0
2:1:3
0:-1
2:3:3
0:-1
1:8:3
-1:-1
2:2:2
0:-1
2:4:2
0:0
6:3:2
1:-1
2:5:2
0:1
3:3:3
0:0
5:1:3
1:-1
4:3:3
1:-1
1:3:3
-1:-1
2:2:2
0:-1
4:1:2
1:-1
0:9:2
-1:-1
3:7:1
0:1
0:2:2
-1:-1
5:13:1
1:1
0:12:2
-1:-1
0:17:1
-1:1
0:13:1
-1:-1
0:17:1
-1:1
0:14:1
-1:1
0:19:1
-1:1
0:15:1
-1:1
0:15:1
-1:1
0:15:1
-1:1
0:14:1
-1:1
0:15:1
-1:1
0:14:1
-1:1
0:14:1
-1:1
0:11:1
-1:-1
0:11:1
-1:1
0:10:1
-1:1
0:8:1
-1:1
2:6:1
0:-1
1:7:1
-1:-1
2:7:1
0:-1
0:7:1
-1:-1
1:6:1
-1:1
2:4:1
0:-1
2:6:1
0:-1
0:7:1
-1:-1
0:9:1
-1:1
0:6:1
-1:1
2:5:1
0:1
6:9:2
1:-1
0:26:2
-1:1
1:8:2
-1:-1
4:10:1
1:1
0:35:2
-1:1
2:38:2
0:0
1:29:2
-1:-1
2:12:1
0:-1
0:50:1
-1:1
0:30:1
-1:1
0:1:1
-1:-1
9:21:1
2:1
0:26:3
-1:1
0:2:3
-1:-1
0:1:2
-1:-1
0:1:1
-1:-1
0:7:1
-1:1
0:7:1
-1:-1
0:4:1
-1:1
0:6:1
-1:1
0:2:1
-1:-1
Finished CPU 0 instructions: 10000000 cycles: 12685551 cumulative IPC: 0.788298 (Simulation time: 0 hr 0 min 41 sec) 

CPU 0 Branch Prediction Accuracy: 98.6665% MPKI: 1.8031 Average ROB Occupancy at Mispredict: 176.955

ChampSim completed all CPUs

Region of Interest Statistics

CPU 0 cumulative IPC: 0.788298 instructions: 10000000 cycles: 12685551
L1D TOTAL     ACCESS:    2607124  HIT:    2501999  MISS:     105125
L1D LOAD      ACCESS:    1028590  HIT:    1020535  MISS:       8055
L1D RFO       ACCESS:     689564  HIT:     607928  MISS:      81636
L1D PREFETCH  ACCESS:     888970  HIT:     873536  MISS:      15434
L1D WRITEBACK ACCESS:          0  HIT:          0  MISS:          0
L1D PREFETCH  REQUESTED:     908351  ISSUED:     896815  USEFUL:      12199  USELESS:       3039
L1D AVERAGE MISS LATENCY: 66545 cycles
L1I TOTAL     ACCESS:    2693494  HIT:    2690668  MISS:       2826
L1I LOAD      ACCESS:    2693494  HIT:    2690668  MISS:       2826
L1I RFO       ACCESS:          0  HIT:          0  MISS:          0
L1I PREFETCH  ACCESS:          0  HIT:          0  MISS:          0
L1I WRITEBACK ACCESS:          0  HIT:          0  MISS:          0
L1I PREFETCH  REQUESTED:          0  ISSUED:          0  USEFUL:          0  USELESS:          0
L1I AVERAGE MISS LATENCY: 80.3001 cycles
L2C TOTAL     ACCESS:     224868  HIT:     142729  MISS:      82139
L2C LOAD      ACCESS:       9244  HIT:       6740  MISS:       2504
L2C RFO       ACCESS:      81628  HIT:       8189  MISS:      73439
L2C PREFETCH  ACCESS:      49613  HIT:      43418  MISS:       6195
L2C WRITEBACK ACCESS:      84383  HIT:      84382  MISS:          1
L2C PREFETCH  REQUESTED:      39847  ISSUED:      39492  USEFUL:       1770  USELESS:       1771
L2C AVERAGE MISS LATENCY: 569.956 cycles
LLC TOTAL     ACCESS:     160975  HIT:      85638  MISS:      75337
LLC LOAD      ACCESS:       2301  HIT:        538  MISS:       1763
LLC RFO       ACCESS:      73435  HIT:       3904  MISS:      69531
LLC PREFETCH  ACCESS:       6402  HIT:       2359  MISS:       4043
LLC WRITEBACK ACCESS:      78837  HIT:      78837  MISS:          0
LLC PREFETCH  REQUESTED:          0  ISSUED:          0  USEFUL:        166  USELESS:          6
LLC AVERAGE MISS LATENCY: 586.999 cycles
Major fault: 0 Minor fault: 2274
CPU 0 L2C next line prefetcher final stats

DRAM Statistics
 CHANNEL 0
 RQ ROW_BUFFER_HIT:      20045  ROW_BUFFER_MISS:      55292
 DBUS_CONGESTED:     136963
 WQ ROW_BUFFER_HIT:      21208  ROW_BUFFER_MISS:      54120  FULL:          0

 AVG_CONGESTED_CYCLE: 6
