
*** ChampSim Multicore Out-of-Order Simulator ***

Warmup Instructions: 1000000
Simulation Instructions: 10000000
Number of CPUs: 1
LLC sets: 2048
LLC ways: 16
Off-chip DRAM Size: 4096 MB Channels: 1 Width: 64-bit Data Rate: 3200 MT/s

CPU 0 runs /home/light/7th-Sem/cs622/project/ChampSim/dpc3_traces/628.pop2_s-17B.champsimtrace.xz
2:16:4
0:-1
4:39:4
1:-1
7:119:4
1:0
0:27:5
-1:1
0:5:5
-1:1
7:26:5
1:-1
7:71:5
1:1
3:12:6
0:0
5:2:6
1:-1
7:19:6
1:0
15:23:7
2:-1
14:31:7
2:1
8:14:9
2:-1
10:8:9
2:-1
13:7:9
2:-1
11:8:9
2:-1
15:7:9
2:-1
0:2:9
-1:-1
1:6:8
-1:-1
15:29:7
2:-1
5:8:7
1:-1
2:1:7
0:-1
2:28:7
0:-1
3:12:7
0:-1
0:12:7
-1:0
0:10:6
-1:-1
5:14:5
1:1
2:27:6
0:1
6:9:7
1:-1
6:21:7
1:1
2:2:8
0:-1
10:3:8
2:-1
0:7:8
-1:1
2:77:8
0:-1
3:92:8
0:1
2:86:9
0:1
0:51:10
-1:1
7:28:10
1:1
7:30:11
1:1
7:30:12
1:1
0:15:12
-1:0
6:32:11
1:1
7:31:12
1:0
7:32:12
1:1
2:50:12
0:0
2:96:12
0:1
4:94:12
1:1
5:92:12
1:0
7:38:12
1:-1
7:28:12
1:1
7:28:12
1:1
7:40:12
1:0
8:28:12
2:0
9:18:12
2:-1
5:5:12
1:-1
1:67:12
-1:0
3:81:11
0:1
2:61:12
0:0
2:75:12
0:1
1:74:12
-1:0
3:58:11
0:-1
3:44:11
0:0
1:47:11
-1:0
2:54:10
0:-1
5:61:10
1:1
6:33:11
1:0
2:62:12
0:1
3:82:12
0:0
4:37:12
1:0
5:29:12
1:0
0:31:12
-1:0
6:59:11
1:0
7:26:12
1:1
2:68:12
0:1
3:49:12
0:1
3:43:12
0:-1
1:32:12
-1:-1
3:40:11
0:0
7:98:11
1:-1
7:126:11
1:1
0:90:12
-1:1
8:41:12
2:-1
5:10:12
1:0
5:19:12
1:0
3:27:12
0:1
2:29:12
0:-1
15:62:12
2:1
15:60:12
2:1
0:35:12
-1:1
2:7:12
0:-1
2:45:12
0:-1
3:32:12
0:0
3:36:12
0:0
3:32:12
0:0
2:30:12
0:0
15:37:12
2:1
10:45:12
2:0
11:38:12
2:1
8:10:12
2:-1
1:6:12
-1:0
4:11:11
1:-1
5:8:11
1:-1
3:26:11
0:0
7:36:11
1:1
1:43:12
-1:-1
1:37:11
-1:0
1:47:10
-1:0
2:44:9
0:0
1:48:9
-1:0
0:16:8
-1:-1
11:9:7
2:-1
1:46:7
-1:1
1:43:7
-1:0
1:49:6
-1:0
0:46:5
-1:1
1:46:5
-1:1
1:52:5
-1:1
3:54:5
0:0
0:42:5
-1:0
1:69:4
-1:0
1:48:3
-1:1
0:48:3
-1:1
1:43:3
-1:0
0:55:2
-1:-1
1:56:1
-1:1
2:37:1
0:1
1:47:2
-1:1
1:49:2
-1:1
1:54:2
-1:0
2:51:1
0:1
7:63:2
1:0
0:28:3
-1:1
0:65:3
-1:0
1:54:2
-1:0
2:46:1
0:1
2:43:2
0:0
6:50:2
1:1
2:61:3
0:1
1:41:4
-1:1
1:50:4
-1:1
1:50:4
-1:1
2:53:4
0:1
0:43:5
-1:1
7:70:5
1:0
8:37:6
2:0
5:10:7
1:0
2:16:8
0:1
5:136:9
1:-1
1:41:9
-1:1
8:39:9
2:1
15:38:11
2:1
0:62:12
-1:0
0:55:11
-1:-1
6:31:10
1:0
5:135:11
1:1
4:93:12
1:1
6:30:12
1:0
14:25:12
2:-1
0:67:12
-1:1
0:27:12
-1:1
5:140:12
1:-1
6:95:12
1:1
4:39:12
1:0
15:19:12
2:0
15:75:12
2:-1
0:39:12
-1:1
6:63:12
1:-1
4:100:12
1:1
0:50:12
-1:1
10:98:12
2:-1
1:6:12
-1:-1
15:24:11
2:-1
15:59:11
2:-1
0:32:11
-1:0
13:52:10
2:-1
15:30:10
2:0
5:79:11
1:-1
2:32:11
0:-1
11:32:11
2:0
15:42:12
2:1
14:42:12
2:1
15:41:12
2:0
14:39:12
2:0
5:62:12
1:1
2:34:12
0:0
15:27:12
2:0
10:32:12
2:-1
0:42:12
-1:1
15:52:12
2:-1
0:9:12
-1:0
3:2:11
0:-1
5:2:11
1:-1
8:6:11
2:0
0:4:12
-1:0
0:4:11
-1:-1
0:1:10
-1:-1
0:1:9
-1:-1
2:1:8
0:-1
0:40:8
-1:-1
0:10:7
-1:-1
0:1:6
-1:-1
0:5:5
-1:0
0:3:4
-1:-1
0:1:3
-1:-1
0:1:2
-1:-1
4:6:1
1:-1
0:50:1
-1:1
14:53:1
2:1
0:1:3
-1:-1
1:8:2
-1:1
14:52:2
2:1
0:1:4
-1:-1
14:50:3
2:1
0:3:5
-1:0
0:1:4
-1:-1
0:2:3
-1:-1
7:23:2
1:1
2:9:3
0:-1
3:10:3
0:1
3:47:4
0:-1
3:41:4
0:1
3:38:5
0:1
7:61:6
1:0
9:76:7
2:0
8:27:8
2:1
6:31:10
1:1
3:51:11
0:1
5:110:12
1:1
5:128:12
1:1
0:90:12
-1:1
8:42:12
2:-1
4:27:12
1:0
0:53:12
-1:1
2:2:12
0:-1
14:11:12
2:0
3:17:12
0:1
2:1:12
0:-1
1:34:12
-1:0
0:23:11
-1:0
14:11:10
2:0
0:12:11
-1:1
7:23:11
1:0
0:16:12
-1:-1
14:13:11
2:0
0:12:12
-1:1
11:36:12
2:-1
14:76:12
2:0
0:53:12
-1:0
8:9:11
2:-1
2:4:11
0:-1
2:12:11
0:-1
0:54:11
-1:-1
5:75:10
1:-1
5:35:10
1:1
14:21:11
2:0
3:43:12
0:1
2:9:12
0:0
0:21:12
-1:1
3:29:12
0:-1
0:18:12
-1:1
6:28:12
1:0
0:34:12
-1:1
1:2:12
-1:-1
3:9:11
0:-1
1:39:11
-1:1
0:6:11
-1:-1
1:3:10
-1:-1
2:1:9
0:-1
14:30:9
2:-1
7:85:9
1:1
7:121:10
1:1
0:49:11
-1:0
3:6:10
0:0
5:2:10
1:-1
0:1:10
-1:-1
9:81:9
2:-1
0:12:9
-1:1
14:23:9
2:-1
10:59:9
2:-1
5:26:9
1:1
8:24:10
2:-1
9:64:10
2:-1
14:44:10
2:1
0:33:12
-1:1
13:20:12
2:-1
0:16:12
-1:1
14:15:12
2:-1
3:16:12
0:0
4:85:12
1:1
3:78:12
0:1
14:24:12
2:-1
4:92:12
1:-1
0:33:12
-1:-1
2:17:11
0:-1
0:4:11
-1:-1
4:3:10
1:-1
10:51:10
2:-1
3:28:10
0:0
3:30:10
0:1
0:19:11
-1:0
5:22:10
1:1
5:17:11
1:0
0:77:12
-1:-1
1:102:11
-1:0
1:94:10
-1:0
1:88:9
-1:0
0:91:8
-1:0
1:103:7
-1:0
0:94:6
-1:0
0:101:5
-1:1
9:57:5
2:0
0:56:6
-1:-1
14:24:5
2:-1
0:60:5
-1:1
4:64:5
1:-1
5:59:5
1:1
7:44:6
1:1
7:86:7
1:1
6:97:8
1:1
0:89:9
-1:1
0:53:9
-1:1
5:51:9
1:1
0:48:10
-1:1
14:50:10
2:1
1:70:12
-1:-1
1:55:11
-1:0
2:56:10
0:0
1:55:10
-1:-1
1:60:9
-1:0
1:58:8
-1:0
1:60:7
-1:0
1:61:6
-1:1
1:59:6
-1:0
1:87:5
-1:-1
2:98:4
0:-1
3:78:4
0:1
4:50:5
1:1
3:44:6
0:1
5:46:7
1:1
5:47:8
1:1
7:73:9
1:0
6:67:10
1:1
5:37:11
1:1
0:31:12
-1:-1
9:33:11
2:-1
1:70:11
-1:-1
3:60:10
0:0
1:59:10
-1:0
1:58:9
-1:0
1:60:8
-1:0
1:57:7
-1:0
1:54:6
-1:0
1:58:5
-1:1
2:122:5
0:-1
2:99:5
0:1
5:75:6
1:1

Warmup complete CPU 0 instructions: 1000002 cycles: 443526 (Simulation time: 0 hr 0 min 2 sec) 

5:51:7
1:-1
4:33:7
1:1
5:33:8
1:1
5:36:9
1:1
5:50:10
1:-1
5:32:10
1:1
5:33:11
1:1
4:33:12
1:0
5:41:12
1:0
14:10:12
2:-1
3:50:12
0:-1
1:62:12
-1:0
1:67:11
-1:0
1:75:10
-1:0
3:31:9
0:-1
3:29:9
0:-1
2:36:9
0:-1
0:36:9
-1:1
2:12:9
0:-1
2:41:9
0:0
2:38:9
0:0
2:44:9
0:0
9:45:9
2:0
3:13:10
0:0
4:12:10
1:0
5:11:11
1:0
3:15:12
0:0
0:20:12
-1:-1
0:30:11
-1:-1
3:19:10
0:-1
5:31:10
1:0
0:27:11
-1:0
0:24:10
-1:-1
1:69:9
-1:1
2:54:9
0:1
1:51:10
-1:0
4:45:9
1:-1
4:31:9
1:0
3:36:10
0:-1
2:27:10
0:0
1:27:10
-1:0
1:31:9
-1:-1
2:47:8
0:0
1:41:8
-1:0
3:37:7
0:0
4:27:7
1:1
2:35:8
0:0
0:26:8
-1:0
3:40:7
0:0
2:28:7
0:0
2:22:7
0:0
2:36:7
0:0
0:18:7
-1:0
1:75:6
-1:0
2:51:5
0:0
1:47:5
-1:-1
4:45:4
1:0
4:33:5
1:1
8:27:6
2:-1
2:31:6
0:0
2:23:6
0:0
1:35:6
-1:1
2:40:6
0:0
0:36:6
-1:0
5:21:5
1:1
3:30:6
0:1
3:29:7
0:1
1:31:8
-1:-1
2:24:7
0:0
0:31:7
-1:0
2:29:6
0:-1
2:30:6
0:0
5:17:6
1:0
0:22:7
-1:1
0:38:7
-1:-1
0:46:6
-1:1
2:29:6
0:-1
2:31:6
0:-1
1:43:6
-1:1
2:35:6
0:1
2:44:7
0:0
2:44:7
0:0
1:38:7
-1:-1
4:41:6
1:0
11:11:7
2:1
4:9:9
1:-1
7:13:9
1:0
0:18:10
-1:0
0:2:9
-1:-1
6:6:8
1:0
14:8:9
2:1
0:4:11
-1:0
0:1:10
-1:-1
9:7:9
2:0
2:6:10
0:0
10:8:10
2:0
0:7:11
-1:-1
7:5:10
1:0
14:6:11
2:0
0:2:12
-1:-1
14:10:11
2:-1
8:14:11
2:0
11:15:12
2:0
7:18:12
1:0
5:10:12
1:-1
7:12:12
1:0
7:24:12
1:0
4:13:12
1:0
0:24:12
-1:0
2:11:11
0:-1
4:7:11
1:-1
8:2:11
2:-1
9:4:11
2:0
2:7:12
0:-1
6:28:12
1:0
7:55:12
1:0
4:22:12
1:0
6:2:12
1:-1
7:4:12
1:0
0:3:12
-1:-1
8:3:11
2:-1
4:2:11
1:-1
5:8:11
1:0
8:15:12
2:1
7:11:12
1:0
0:15:12
-1:1
5:5:12
1:0
0:9:12
-1:0
7:5:11
1:-1
6:24:11
1:0
7:45:12
1:-1
0:33:12
-1:1
9:2:12
2:-1
1:10:12
-1:0
5:13:11
1:-1
10:27:11
2:1
0:20:12
-1:0
3:24:11
0:0
1:27:11
-1:1
8:14:11
2:-1
11:28:11
2:0
2:15:12
0:0
4:7:12
1:-1
0:5:12
-1:0
4:7:11
1:-1
3:5:11
0:-1
7:4:11
1:0
13:6:12
2:0
14:5:12
2:0
14:5:12
2:0
14:4:12
2:0
14:6:12
2:0
14:5:12
2:0
4:11:12
1:-1
14:19:12
2:0
0:25:12
-1:0
0:0:11
-1:-1
4:1:10
1:-1
0:1:10
-1:-1
4:1:9
1:-1
14:23:9
2:-1
14:24:9
2:1
4:7:11
1:-1
5:1:11
1:-1
3:24:11
0:0
9:20:11
2:1
5:8:12
1:-1
14:8:12
2:0
4:10:12
1:-1
9:5:12
2:0
14:5:12
2:0
14:6:12
2:0
11:5:12
2:0
11:6:12
2:0
14:5:12
2:0
6:3:12
1:-1
10:2:12
2:-1
0:8:12
-1:0
0:2:11
-1:-1
7:9:10
1:-1
8:1:10
2:-1
0:3:10
-1:0
9:1:9
2:-1
9:5:9
2:0
10:3:10
2:0
10:2:11
2:-1
11:4:11
2:0
12:4:12
2:-1
9:20:12
2:0
14:14:12
2:0
2:18:12
0:-1
2:1:12
0:-1
0:1:12
-1:-1
1:1:11
-1:-1
5:1:10
1:-1
5:3:10
1:-1
9:6:10
2:-1
2:6:10
0:0
0:6:10
-1:-1
5:1:9
1:-1
2:1:9
0:-1
8:2:9
2:-1
6:2:9
1:-1
0:5:9
-1:-1
7:18:8
1:-1
0:20:8
-1:-1
2:7:7
0:-1
6:13:7
1:-1
5:14:7
1:-1
8:21:7
2:0
7:23:8
1:0
0:4:9
-1:-1
5:15:8
1:0
8:18:9
2:0
2:12:10
0:-1
8:7:10
2:-1
7:2:10
1:-1
12:5:10
2:0
14:4:11
2:0
2:11:12
0:-1
3:21:12
0:0
2:18:12
0:0
3:30:12
0:0
3:41:12
0:0
2:34:12
0:0
3:31:12
0:0
3:19:12
0:-1
0:9:12
-1:0
9:20:11
2:0
0:18:12
-1:0
7:18:11
1:0
7:18:12
1:0
7:18:12
1:0
8:17:12
2:0
0:0:12
-1:-1
7:21:11
1:1
7:18:12
1:0
7:18:12
1:0
7:18:12
1:-1
7:18:12
1:-1
8:15:12
2:0
1:23:12
-1:-1
2:37:11
0:0
2:32:11
0:0
2:34:11
0:0
2:47:11
0:0
2:37:11
0:0
4:27:11
1:0
7:25:12
1:0
6:22:12
1:0
7:17:12
1:0
7:18:12
1:0
7:18:12
1:0
7:17:12
1:0
7:31:12
1:-1
8:16:12
2:0
10:12:12
2:0
0:8:12
-1:-1
0:4:11
-1:0
0:34:10
-1:1
1:70:10
-1:0
2:60:9
0:1
3:55:10
0:0
2:18:10
0:-1
2:29:10
0:0
3:20:10
0:0
0:33:10
-1:0
2:39:9
0:-1
2:32:9
0:0
2:21:9
0:0
2:29:9
0:-1
3:26:9
0:0
0:24:9
-1:-1
5:40:8
1:0
6:26:9
1:1
3:26:10
0:0
5:35:10
1:0
4:21:11
1:0
0:37:12
-1:0
1:22:11
-1:0
4:21:10
1:0
0:20:11
-1:0
3:25:10
0:0
0:22:10
-1:0
2:13:9
0:-1
3:52:9
0:0
3:41:9
0:0
4:34:9
1:0
3:30:10
0:0
4:38:10
1:0
0:57:11
-1:0
2:21:10
0:-1
1:23:10
-1:0
2:25:9
0:0
3:28:9
0:0
0:23:9
-1:0
9:70:8
2:-1
7:80:8
1:0
14:65:9
2:0
4:37:10
1:0
0:25:11
-1:-1
8:11:10
2:-1
2:7:10
0:0
9:7:10
2:0
0:8:11
-1:0
14:8:10
2:-1
3:8:10
0:0
0:3:10
-1:-1
14:17:9
2:0
14:23:10
2:0
2:21:11
0:0
0:21:11
-1:0
0:3:10
-1:-1
5:3:9
1:-1
1:2:9
-1:-1
2:11:8
0:-1
2:35:8
0:0
2:12:8
0:0
4:11:8
1:0
2:10:9
0:0
4:15:9
1:0
3:21:10
0:0
3:14:10
0:0
9:20:10
2:-1
14:23:10
2:0
2:20:11
0:0
14:14:11
2:0
6:19:12
1:0
0:7:12
-1:0
8:8:11
2:0
0:6:12
-1:0
0:2:11
-1:-1
3:5:10
0:-1
5:6:10
1:-1
0:16:10
-1:-1
14:34:9
2:-1
7:8:9
1:-1
1:24:9
-1:-1
1:33:8
-1:0
1:37:7
-1:0
1:31:6
-1:0
1:37:5
-1:0
1:41:4
-1:1
0:17:4
-1:0
2:5:3
0:-1
0:6:3
-1:-1
1:27:2
-1:-1
1:43:1
-1:1
1:32:1
-1:1
1:42:1
-1:1
2:39:1
0:1
1:43:2
-1:1
0:32:2
-1:1
0:41:2
-1:1
2:20:2
0:-1
2:29:2
0:1
0:10:3
-1:0
1:68:2
-1:1
1:38:2
-1:1
0:41:2
-1:1
1:39:2
-1:1
2:32:2
0:1
0:29:3
-1:0
14:31:2
2:-1
3:40:2
0:0
2:34:2
0:1
0:36:3
-1:1
1:46:3
-1:0
2:38:2
0:1
1:41:3
-1:1
2:35:3
0:1
0:30:4
-1:-1
9:37:3
2:0
0:16:4
-1:-1
0:68:3
-1:1
1:38:3
-1:0
1:38:2
-1:1
1:38:2
-1:1
2:32:2
0:1
0:31:3
-1:0
14:31:2
2:0
1:49:3
-1:0
1:34:2
-1:1
1:36:2
-1:0
1:44:1
-1:1
1:41:1
-1:-1
2:41:1
0:1
2:35:2
0:1
0:32:3
-1:0
6:43:2
1:-1
2:19:2
0:0
10:8:2
2:-1
5:6:2
1:-1
12:7:2
2:1
7:30:4
1:0
3:36:5
0:0
4:22:5
1:0
12:6:6
2:0
4:5:7
1:0
3:15:8
0:1
14:20:9
2:0
0:23:10
-1:1
14:6:10
2:-1
0:30:10
-1:1
3:26:10
0:0
4:19:10
1:0
8:36:11
2:0
5:35:12
1:0
3:26:12
0:-1
5:46:12
1:1
2:9:12
0:0
7:6:12
1:-1
6:11:12
1:0
14:26:12
2:0
0:26:12
-1:0
4:29:11
1:-1
0:44:11
-1:0
4:30:10
1:-1
6:12:10
1:0
11:10:11
2:0
14:21:12
2:0
14:10:12
2:0
0:10:12
-1:0
14:34:11
2:1
0:21:12
-1:0
0:27:11
-1:-1
7:45:10
1:-1
0:58:10
-1:0
14:33:9
2:-1
6:37:9
1:0
7:21:10
1:1
0:23:11
-1:0
0:6:10
-1:-1
9:5:9
2:-1
0:14:9
-1:0
14:36:8
2:-1
7:11:8
1:1
0:7:9
-1:0
14:17:8
2:-1
6:24:8
1:-1
14:7:8
2:0
11:27:9
2:-1
11:29:9
2:1
4:13:11
1:-1
5:21:11
1:-1
7:16:11
1:0
0:10:12
-1:0
14:29:11
2:-1
6:12:11
1:0
14:9:12
2:0
14:22:12
2:-1
4:18:12
1:0
14:8:12
2:0
6:16:12
1:-1
12:28:12
2:0
0:7:12
-1:0
5:10:11
1:0
3:8:12
0:-1
0:5:12
-1:0
11:32:11
2:-1
0:21:11
-1:0
14:25:10
2:-1
1:25:10
-1:0
0:1:9
-1:-1
2:1:8
0:-1
2:1:8
0:-1
5:5:8
1:0
6:6:9
1:0
8:4:10
2:-1
0:1:10
-1:-1
0:5:9
-1:-1
0:1:8
-1:-1
0:2:7
-1:-1
0:1:6
-1:-1
2:1:5
0:-1
6:7:5
1:-1
1:7:5
-1:0
0:8:4
-1:0
1:5:3
-1:0
0:3:2
-1:-1
0:3:1
-1:-1
0:6:1
-1:1
0:2:1
-1:1
0:2:1
-1:-1
0:2:1
-1:1
0:1:1
-1:-1
14:25:1
2:-1
0:19:1
-1:-1
6:30:1
1:1
0:16:2
-1:1
0:4:2
-1:0
4:24:1
1:-1
0:20:1
-1:-1
14:31:1
2:1
0:18:3
-1:1
0:1:3
-1:-1
0:1:2
-1:-1
0:16:1
-1:-1
0:9:1
-1:1
0:5:1
-1:-1
4:5:1
1:1
3:6:2
0:-1
2:46:2
0:-1
3:31:2
0:0
3:35:2
0:1
3:25:3
0:1
7:23:4
1:0
7:31:5
1:0
4:29:6
1:-1
3:4:6
0:0
0:4:6
-1:0
8:2:5
2:-1
0:5:5
-1:0
4:9:4
1:-1
13:9:4
2:1
14:9:6
2:1
14:9:8
2:1
0:9:10
-1:0
6:18:9
1:-1
7:22:9
1:0
7:74:10
1:0
3:98:11
0:1
1:89:12
-1:1
0:15:12
-1:-1
4:25:11
1:-1
0:8:11
-1:0
2:7:10
0:0
5:11:10
1:0
4:17:11
1:0
5:16:12
1:0
0:5:12
-1:-1
9:6:11
2:0
14:9:12
2:0
3:7:12
0:0
0:0:12
-1:-1
4:7:11
1:0
5:7:12
1:-1
5:11:12
1:-1
0:13:12
-1:0
11:9:11
2:0
14:8:12
2:0
0:3:12
-1:0
6:7:11
1:0
7:13:12
1:0
7:9:12
1:0
0:2:12
-1:-1
11:7:11
2:0
14:11:12
2:0
0:3:12
-1:-1
3:15:11
0:-1
13:33:11
2:-1
13:41:11
2:0
14:41:12
2:1
0:28:12
-1:0
5:6:11
1:-1
8:4:11
2:0
3:3:12
0:-1
2:2:12
0:-1
0:4:12
-1:-1
2:3:11
0:-1
2:10:11
0:-1
14:11:11
2:0
4:7:12
1:0
10:2:12
2:-1
14:6:12
2:0
14:1:12
2:-1
12:4:12
2:0
0:5:12
-1:0
5:4:11
1:-1
9:4:11
2:0
14:5:12
2:-1
14:12:12
2:0
2:6:12
0:-1
6:4:12
1:0
0:4:12
-1:0
0:10:11
-1:-1
0:11:10
-1:-1
0:11:9
-1:-1
2:23:8
0:-1
3:20:8
0:0
0:0:8
-1:-1
8:11:7
2:0
5:16:8
1:0
8:18:9
2:1
0:8:11
-1:-1
1:2:10
-1:-1
1:3:9
-1:-1
6:16:8
1:-1
2:24:8
0:1
4:7:9
1:-1
0:3:9
-1:-1
0:2:8
-1:-1
3:1:7
0:-1
2:1:7
0:-1
0:12:7
-1:-1
4:49:6
1:0
7:84:7
1:1
7:90:8
1:0
0:25:9
-1:0
3:5:8
0:0
5:1:8
1:-1
0:1:8
-1:-1
5:25:7
1:-1
11:27:7
2:0
5:15:8
1:-1
9:2:8
2:-1
0:9:8
-1:0
8:24:7
2:-1
0:26:7
-1:0
5:6:6
1:-1
9:3:6
2:-1
2:9:6
0:0
0:10:6
-1:-1
11:29:5
2:0
4:8:6
1:0
5:0:7
1:-1
14:13:7
2:0
0:18:8
-1:1
8:11:8
2:-1
14:10:8
2:1
0:10:10
-1:1
0:3:10
-1:-1
9:9:9
2:-1
14:9:9
2:1
3:7:11
0:0
0:4:11
-1:-1
10:28:10
2:0
2:26:11
0:0
9:3:11
2:-1
11:7:11
2:0
2:13:12
0:0
0:1:12
-1:-1
4:6:11
1:-1
4:26:11
1:0
10:25:12
2:1
0:20:12
-1:0
2:10:11
0:-1
2:4:11
0:-1
3:24:11
0:0
0:10:11
-1:-1
2:4:10
0:-1
10:12:10
2:-1
0:4:10
-1:-1
4:3:9
1:-1
13:11:9
2:-1
5:22:9
1:1
3:11:10
0:0
4:23:10
1:0
6:12:11
1:0
0:10:12
-1:0
6:9:11
1:0
8:8:12
2:0
0:6:12
-1:-1
5:2:11
1:-1
1:17:11
-1:-1
1:32:10
-1:0
0:21:9
-1:0
1:37:8
-1:0
1:33:7
-1:0
1:31:6
-1:0
1:20:5
-1:-1
1:22:4
-1:0
0:16:3
-1:0
0:34:2
-1:1
1:45:2
-1:1
0:42:2
-1:1
1:36:2
-1:1
0:33:2
-1:-1
1:51:1
-1:1
9:59:1
2:1
2:14:3
0:-1
14:2:3
2:-1
0:2:3
-1:-1
14:3:2
2:1
0:1:4
-1:-1
5:22:3
1:-1
4:14:3
1:1
4:14:4
1:1
5:14:5
1:-1
4:17:5
1:-1
7:13:5
1:1
3:11:6
0:1
7:9:7
1:0
2:23:8
0:-1
7:28:8
1:0
7:30:9
1:1
5:28:10
1:0
3:34:11
0:0
4:18:11
1:0
12:12:12
2:0
3:8:12
0:0
12:22:12
2:0
4:8:12
1:0
14:10:12
2:0
6:5:12
1:0
14:7:12
2:-1
8:8:12
2:0
1:37:12
-1:-1
2:39:11
0:0
1:31:11
-1:-1
1:29:10
-1:-1
1:29:9
-1:0
1:38:8
-1:0
1:30:7
-1:0
1:33:6
-1:0
1:30:5
-1:0
1:30:4
-1:0
2:30:3
0:0
1:37:3
-1:1
0:28:3
-1:0
1:26:2
-1:1
1:36:2
-1:1
1:28:2
-1:1
1:27:2
-1:1
2:36:2
0:0
3:36:2
0:1
2:40:3
0:1
4:33:4
1:1
3:29:5
0:1
4:30:6
1:0
6:24:7
1:1
5:28:8
1:1
6:13:9
1:-1
6:15:9
1:1
6:19:10
1:1
0:20:11
-1:0
3:11:10
0:-1
7:36:10
1:-1
3:35:10
0:0
4:26:10
1:1
5:23:11
1:1
5:24:12
1:0
1:19:12
-1:0
7:21:11
1:1
2:37:12
0:-1
1:37:12
-1:-1
1:32:11
-1:0
1:32:10
-1:-1
1:28:9
-1:-1
1:35:8
-1:0
1:30:7
-1:0
1:26:6
-1:0
1:30:5
-1:0
1:29:4
-1:0
1:32:3
-1:1
1:29:3
-1:1
1:29:3
-1:1
2:23:3
0:0
3:27:3
0:1
2:26:4
0:0
2:77:4
0:-1
2:56:4
0:1
4:48:5
1:1
2:46:6
0:1
3:55:7
0:0
5:35:7
1:1
4:33:8
1:1
4:31:9
1:1
0:32:10
-1:1
5:50:10
1:1
4:31:11
1:0
4:34:12
1:1
5:34:12
1:1
13:43:12
2:-1
1:86:12
-1:-1
1:64:11
-1:0
2:79:10
0:0
3:57:10
0:0
4:37:10
1:1
4:35:11
1:0
0:37:12
-1:0
3:36:11
0:0
2:46:11
0:0
1:45:11
-1:0
2:37:10
0:0
2:21:10
0:-1
4:10:10
1:0
1:11:11
-1:-1
2:15:10
0:0
0:21:10
-1:0
2:42:9
0:0
2:28:9
0:0
2:33:9
0:0
2:31:9
0:0
0:16:9
-1:-1
1:68:8
-1:0
0:54:7
-1:0
2:59:6
0:1
3:46:7
0:0
3:32:7
0:1
5:36:8
1:1
3:14:9
0:0
2:34:9
0:0
2:35:9
0:0
3:28:9
0:0
2:41:9
0:0
7:35:9
1:-1
4:29:9
1:0
3:32:10
0:0
0:37:10
-1:0
3:27:9
0:0
2:29:9
0:0
3:19:9
0:-1
3:29:9
0:0
0:13:9
-1:-1
1:69:8
-1:-1
2:54:7
0:0
2:55:7
0:1
3:48:8
0:0
3:32:8
0:0
3:37:8
0:0
1:37:8
-1:0
4:34:7
1:-1
1:37:7
-1:0
1:37:6
-1:1
0:41:6
-1:0
4:33:5
1:-1
3:32:5
0:-1
3:29:5
0:0
1:43:5
-1:0
3:31:4
0:1
2:33:5
0:1
3:30:6
0:1
0:24:7
-1:0
2:33:6
0:-1
0:43:6
-1:0
1:41:5
-1:1
1:29:5
-1:-1
3:22:4
0:1
1:23:5
-1:1
3:23:5
0:1
0:36:6
-1:0
1:44:5
-1:1
1:55:5
-1:1
5:39:5
1:0
3:11:6
0:1
7:14:7
1:0
5:19:8
1:0
0:7:9
-1:-1
8:8:8
2:1
13:8:10
2:0
3:3:11
0:-1
3:1:11
0:-1
12:7:11
2:0
8:3:12
2:-1
0:10:12
-1:0
10:7:11
2:0
0:6:12
-1:0
14:9:11
2:-1
12:8:11
2:-1
12:11:11
2:0
0:19:12
-1:0
7:13:11
1:0
7:12:12
1:0
0:18:12
-1:-1
0:22:11
-1:0
2:20:10
0:-1
0:12:10
-1:-1
7:61:9
1:-1
0:47:9
-1:0
12:11:8
2:-1
1:8:8
-1:0
4:3:7
1:-1
5:5:7
1:-1
7:4:7
1:0
6:4:8
1:-1
0:13:8
-1:0
8:3:7
2:0
0:6:8
-1:0
0:19:7
-1:-1
7:36:6
1:-1
0:40:6
-1:0
11:2:5
2:-1
0:6:5
-1:0
11:23:4
2:0
2:27:5
0:1
5:15:6
1:1
4:18:7
1:0
0:25:8
-1:0
9:15:7
2:-1
6:21:7
1:0
2:18:8
0:0
6:13:8
1:0
4:7:9
1:0
0:4:10
-1:0
11:6:9
2:-1
0:4:9
-1:0
6:5:8
1:0
11:5:9
2:0
14:5:10
2:0
14:5:11
2:0
14:5:12
2:0
0:5:12
-1:0
14:21:11
2:-1
7:21:11
1:0
4:7:12
1:-1
0:1:12
-1:-1
4:1:11
1:-1
14:23:11
2:-1
11:24:11
2:1
0:11:12
-1:0
1:1:11
-1:-1
4:1:10
1:-1
5:2:10
1:-1
3:24:10
0:0
8:20:10
2:0
11:14:11
2:-1
0:14:11
-1:0
6:6:10
1:0
11:5:11
2:0
14:4:12
2:0
14:6:12
2:0
14:6:12
2:0
14:5:12
2:0
14:5:12
2:0
14:4:12
2:0
14:6:12
2:0
4:3:12
1:-1
3:5:12
0:-1
7:2:12
1:-1
8:1:12
2:-1
12:4:12
2:0
0:3:12
-1:-1
12:4:11
2:-1
13:2:11
2:-1
13:4:11
2:0
14:7:12
2:-1
11:20:12
2:0
14:13:12
2:0
1:16:12
-1:-1
2:1:11
0:-1
2:2:11
0:-1
5:2:11
1:-1
6:1:11
1:-1
9:7:11
2:-1
5:15:11
1:0
2:2:12
0:-1
10:3:12
2:-1
1:14:12
-1:0
0:7:11
-1:-1
0:19:10
-1:-1
2:18:9
0:-1
1:6:9
-1:-1
0:14:8
-1:-1
4:16:7
1:0
2:22:8
0:0
2:18:8
0:0
2:5:8
0:-1
5:15:8
1:0
5:18:9
1:0
2:8:10
0:-1
9:10:10
2:-1
10:1:10
2:-1
14:4:10
2:0
0:3:11
-1:0
3:22:10
0:-1
2:23:10
0:0
3:18:10
0:0
2:29:10
0:0
3:24:10
0:0
3:24:10
0:0
1:25:10
-1:0
2:26:9
0:0
2:19:9
0:0
0:6:9
-1:-1
7:20:8
1:1
8:17:9
2:0
7:19:10
1:-1
7:18:10
1:0
7:19:11
1:0
8:16:12
2:0
0:1:12
-1:-1
7:22:11
1:1
7:18:12
1:0
6:19:12
1:0
7:19:12
1:0
13:20:12
2:0
0:15:12
-1:0
1:9:11
-1:-1
3:22:10
0:0
1:24:10
-1:0
2:37:9
0:0
1:38:9
-1:0
2:41:8
0:0
1:29:8
-1:0
2:21:7
0:-1
7:30:7
1:0
10:20:8
2:1
0:14:10
-1:0
6:16:9
1:1
6:16:10
1:0
0:16:11
-1:0
6:25:10
1:1
7:18:11
1:0
7:18:12
1:0
8:10:12
2:0
0:1:12
-1:-1
0:33:11
-1:1
2:75:11
0:0
2:60:11
0:1
9:49:12
2:0
2:13:12
0:-1
2:33:12
0:0
4:23:12
1:0
3:25:12
0:0
2:25:12
0:0
2:34:12
0:0
2:29:12
0:0
3:26:12
0:0
3:29:12
0:0
0:23:12
-1:0
2:30:11
0:-1
2:65:11
0:1
4:47:12
1:0
6:30:12
1:0
2:27:12
0:0
4:37:12
1:0
6:54:12
1:0
4:17:12
1:0
3:22:12
0:0
3:28:12
0:0
3:25:12
0:0
2:19:12
0:-1
4:59:12
1:-1
4:37:12
1:0
0:19:12
-1:0
3:45:11
0:-1
3:44:11
0:0
0:49:11
-1:0
3:29:10
0:0
5:16:10
1:0
5:13:11
1:0
4:22:12
1:0
2:22:12
0:0
7:84:12
1:-1
7:89:12
1:0
0:67:12
-1:0
5:36:11
1:0
2:29:12
0:-1
10:8:12
2:0
3:6:12
0:-1
10:7:12
2:0
0:11:12
-1:0
14:10:11
2:0
3:5:12
0:-1
0:3:12
-1:-1
14:13:11
2:0
14:29:12
2:0
8:50:12
2:0
0:38:12
-1:0
0:1:11
-1:-1
5:6:10
1:-1
1:2:10
-1:-1
1:13:9
-1:-1
2:36:8
0:0
3:20:8
0:0
3:17:8
0:0
4:16:8
1:0
2:12:9
0:0
4:17:9
1:0
2:14:10
0:0
14:25:10
2:1
0:23:12
-1:0
11:9:11
2:-1
4:18:11
1:1
12:9:12
2:0
6:7:12
1:-1
13:7:12
2:0
1:1:12
-1:-1
3:9:11
0:0
4:6:11
1:-1
0:17:11
-1:-1
14:30:10
2:-1
7:11:10
1:0
1:25:11
-1:-1
1:35:10
-1:0
1:35:9
-1:0
0:34:8
-1:0
1:39:7
-1:0
1:36:6
-1:0
0:21:5
-1:-1
0:3:4
-1:-1
12:6:3
2:-1
1:35:3
-1:-1
1:37:2
-1:1
2:41:2
0:1
1:46:3
-1:1
0:39:3
-1:1
1:43:3
-1:0
0:39:2
-1:1
0:26:2
-1:0
12:33:1
2:-1
0:15:1
-1:-1
1:69:1
-1:1
1:36:1
-1:1
1:41:1
-1:1
1:39:1
-1:1
1:30:1
-1:1
0:32:1
-1:1
14:29:1
2:-1
2:44:1
0:1
1:37:2
-1:1
1:33:2
-1:1
0:45:2
-1:1
1:39:2
-1:1
1:39:2
-1:1
1:41:2
-1:1
0:31:2
-1:1
7:45:2
1:-1
0:17:2
-1:0
1:72:1
-1:1
1:40:1
-1:1
1:38:1
-1:1
2:38:1
0:1
1:31:2
-1:1
1:30:2
-1:1
14:27:2
2:-1
2:41:2
0:1
1:39:3
-1:1
2:34:3
0:1
0:43:4
-1:1
1:42:4
-1:-1
1:38:3
-1:1
2:37:3
0:0
0:26:3
-1:0
2:44:2
0:-1
5:19:2
1:0
0:8:3
-1:1
7:7:3
1:1
14:7:4
2:1
4:42:6
1:-1
6:36:6
1:0
6:18:7
1:0
13:6:8
2:0
0:5:9
-1:0
9:18:8
2:0
14:23:9
2:0
8:19:10
2:0
0:13:11
-1:0
11:28:10
2:0
5:18:11
1:0
4:30:12
1:-1
7:36:12
1:0
5:30:12
1:0
5:30:12
1:-1
6:27:12
1:0
1:10:12
-1:0
13:12:11
2:0
14:13:12
2:-1
0:28:12
-1:0
0:20:11
-1:0
4:52:10
1:-1
2:47:10
0:0
4:18:10
1:-1
2:9:10
0:0
13:10:10
2:0
14:22:11
2:-1
14:7:11
2:0
3:13:12
0:-1
14:31:12
2:0
0:21:12
-1:0
0:32:11
-1:-1
7:52:10
1:-1
0:52:10
-1:0
14:31:9
2:-1
3:35:9
0:0
6:23:9
1:0
3:17:10
0:0
0:10:10
-1:-1
6:4:9
1:-1
3:7:9
0:0
14:24:9
2:-1
0:31:9
-1:0
10:4:8
2:0
6:14:9
1:0
12:42:10
2:1
11:8:12
2:0
5:3:12
1:-1
9:15:12
2:-1
11:30:12
2:1
4:18:12
1:0
4:20:12
1:-1
4:16:12
1:0
0:12:12
-1:0
14:25:11
2:-1
6:17:11
1:0
0:8:12
-1:0
14:31:11
2:-1
6:13:11
1:-1
5:1:11
1:-1
7:13:11
1:0
10:25:12
2:-1
0:20:12
-1:0
6:12:11
1:0
3:9:12
0:-1
0:8:12
-1:0
4:27:11
1:-1
0:21:11
-1:0
13:23:10
2:-1
1:25:10
-1:0
0:1:9
-1:-1
2:1:8
0:-1
2:2:8
0:-1
5:5:8
1:0
6:6:9
1:0
8:4:10
2:-1
0:2:10
-1:-1
0:4:9
-1:-1
0:1:8
-1:-1
0:1:7
-1:-1
0:1:6
-1:-1
2:1:5
0:-1
5:8:5
1:-1
0:4:5
-1:0
0:9:4
-1:0
1:5:3
-1:-1
2:1:2
0:-1
3:4:2
0:-1
0:1:2
-1:-1
0:2:1
-1:-1
0:2:1
-1:1
0:2:1
-1:-1
0:2:1
-1:1
0:1:1
-1:-1
11:25:1
2:-1
0:15:1
-1:-1
14:30:1
2:1
0:17:3
-1:0
0:1:2
-1:-1
0:3:1
-1:1
14:25:1
2:-1
0:22:1
-1:-1
14:29:1
2:1
0:16:3
-1:1
0:1:3
-1:-1
0:1:2
-1:-1
2:20:1
0:-1
1:8:1
-1:1
1:6:1
-1:-1
4:5:1
1:-1
3:6:1
0:-1
4:50:1
1:-1
3:32:1
0:1
3:35:2
0:1
3:25:3
0:1
6:17:4
1:0
7:32:5
1:1
3:34:6
0:0
14:5:6
2:0
4:6:7
1:0
12:4:8
2:0
0:7:9
-1:0
9:11:8
2:-1
14:9:8
2:1
14:9:10
2:1
14:9:12
2:0
5:17:12
1:0
9:13:12
2:0
7:55:12
1:-1
7:97:12
1:-1
7:105:12
1:1
0:25:12
-1:0
2:29:11
0:-1
11:10:11
2:0
3:3:12
0:-1
3:10:12
0:0
3:27:12
0:0
0:18:12
-1:0
0:2:11
-1:-1
10:6:10
2:0
14:9:11
2:0
3:9:12
0:0
0:0:12
-1:-1
4:10:11
1:0
4:13:12
1:0
4:16:12
1:-1
0:11:12
-1:0
12:9:11
2:0
14:10:12
2:0
0:2:12
-1:-1
5:5:11
1:0
7:11:12
1:0
7:10:12
1:0
0:6:12
-1:0
12:8:11
2:0
14:11:12
2:0
0:3:12
-1:-1
3:13:11
0:-1
14:31:11
2:-1
14:41:11
2:0
14:39:12
2:0
0:25:12
-1:0
4:4:11
1:-1
7:3:11
1:0
1:3:12
-1:-1
0:3:11
-1:-1
1:4:10
-1:-1
2:4:9
0:-1
2:9:9
0:-1
14:5:9
2:0
12:11:10
2:0
11:1:11
2:-1
10:9:11
2:0
0:7:12
-1:0
0:10:11
-1:0
5:6:10
1:-1
9:4:10
2:0
13:5:11
2:-1
0:9:11
-1:0
2:5:10
0:-1
6:4:10
1:0
0:4:11
-1:0
0:8:10
-1:-1
0:13:9
-1:-1
0:13:8
-1:-1
9:17:7
2:-1
2:23:7
0:0
0:4:7
-1:0
6:13:6
1:0
5:7:7
1:0
5:14:8
1:0
0:13:9
-1:0
1:2:8
-1:-1
1:2:7
-1:-1
6:17:6
1:-1
5:27:6
1:1
4:5:7
1:-1
0:3:7
-1:-1
0:2:6
-1:-1
3:2:5
0:-1
2:3:5
0:-1
0:15:5
-1:-1
2:47:4
0:1
7:83:5
1:0
7:82:6
1:0
5:32:7
1:0
6:1:8
1:-1
0:1:8
-1:-1
5:19:7
1:-1
10:31:7
2:0
5:10:8
1:0
8:2:9
2:-1
0:8:9
-1:0
1:27:8
-1:-1
0:24:7
-1:0
5:6:6
1:-1
9:2:6
2:-1
2:8:6
0:0
8:15:6
2:-1
10:18:6
2:0
0:14:7
-1:0
9:4:6
2:-1
5:3:6
1:-1
14:18:6
2:0
4:16:7
1:0
13:11:8
2:1
14:10:10
2:1
10:6:12
2:0
0:1:12
-1:-1
9:8:11
2:-1
14:9:11
2:0
3:7:12
0:0
0:6:12
-1:-1
10:15:11
2:0
3:28:12
0:0
4:8:12
1:-1
9:7:12
2:0
10:13:12
2:0
3:6:12
0:-1
0:4:12
-1:-1
2:20:11
0:0
10:25:11
2:-1
0:22:11
-1:0
2:11:10
0:-1
2:5:10
0:-1
0:28:10
-1:0
0:7:9
-1:-1
2:4:8
0:-1
10:11:8
2:-1
0:2:8
-1:-1
4:3:7
1:-1
14:12:7
2:-1
7:15:7
1:-1
3:8:7
0:0
4:21:7
1:0
6:10:8
1:0
0:10:9
-1:0
6:11:8
1:1
8:7:9
2:0
5:8:10
1:-1
0:14:10
-1:-1
1:34:9
-1:0
0:33:8
-1:0
1:40:7
-1:0
1:32:6
-1:0
1:44:5
-1:0
1:57:4
-1:1
1:40:4
-1:0
1:51:3
-1:1
1:40:3
-1:1
0:48:3
-1:-1
1:42:2
-1:1
0:30:2
-1:1
1:63:2
-1:1
0:36:2
-1:0
13:4:1
2:-1
7:2:1
1:-1
0:3:1
-1:-1
9:3:1
2:1
14:2:3
2:-1
4:23:3
1:-1
4:16:3
1:1
4:14:4
1:1
4:12:5
1:1
5:14:6
1:1
5:12:7
1:1
6:8:8
1:-1
5:11:8
1:0
7:3:9
1:-1
2:21:9
0:-1
7:29:9
1:-1
7:22:9
1:0
3:25:10
0:0
7:41:10
1:1
0:30:11
-1:-1
14:3:10
2:-1
13:7:10
2:0
10:3:11
2:-1
13:14:11
2:0
12:10:12
2:0
14:11:12
2:0
8:2:12
2:-1
14:14:12
2:0
0:36:12
-1:-1
1:29:11
-1:0
0:31:10
-1:-1
1:32:9
-1:-1
1:32:8
-1:0
3:24:7
0:0
2:30:7
0:-1
2:29:7
0:-1
1:32:7
-1:-1
1:27:6
-1:0
0:31:5
-1:0
1:25:4
-1:0
1:29:3
-1:0
1:28:2
-1:1
1:31:2
-1:1
1:29:2
-1:1
1:29:2
-1:1
1:31:2
-1:1
1:38:2
-1:0
3:39:1
0:1
3:21:2
0:1
3:22:3
0:1
4:32:4
1:1
2:27:5
0:1
4:38:6
1:0
4:22:7
1:1
5:26:8
1:1
5:18:9
1:0
5:19:10
1:1
5:15:11
1:0
5:17:12
1:0
7:29:12
1:0
8:39:12
2:0
6:21:12
1:0
7:21:12
1:0
7:20:12
1:0
7:21:12
1:0
7:19:12
1:0
0:27:12
-1:-1
1:30:11
-1:-1
1:36:10
-1:0
1:31:9
-1:0
1:32:8
-1:0
1:28:7
-1:0
1:26:6
-1:0
3:26:5
0:0
1:34:5
-1:0
1:29:4
-1:0
3:28:3
0:0
3:29:3
0:1
2:29:4
0:0
2:29:4
0:-1
1:22:4
-1:0
1:31:3
-1:1
0:26:3
-1:1
2:84:3
0:-1
3:47:3
0:1
4:43:4
1:1
3:44:5
0:1
6:57:6
1:0
4:33:7
1:1
5:33:8
1:0
5:33:9
1:1
4:38:10
1:1
5:41:11
1:1
4:31:12
1:0
5:32:12
1:0
4:35:12
1:0
13:41:12
2:-1
2:88:12
0:-1
1:65:12
-1:0
2:75:11
0:0
4:65:11
1:-1
3:37:11
0:0
4:36:11
1:0
0:28:12
-1:0
1:29:11
-1:0
2:31:10
0:-1
2:35:10
0:0
2:38:10
0:0
0:32:10
-1:0
3:16:9
0:0
5:10:9
1:0
3:11:10
0:0
0:17:10
-1:0
0:41:9
-1:0
2:31:8
0:0
3:27:8
0:0
3:30:8
0:-1
0:18:8
-1:0
2:71:7
0:1
1:58:8
-1:1
1:62:8
-1:1
3:53:8
0:0
3:35:8
0:1
4:36:9
1:1
1:24:10
-1:-1
2:34:9
0:0
2:37:9
0:0
2:38:9
0:0
2:16:9
0:0
5:27:9
1:-1
3:32:9
0:0
3:33:9
0:0
0:37:9
-1:0
2:34:8
0:-1
2:31:8
0:0
0:24:8
-1:0
0:26:7
-1:-1
0:12:6
-1:-1
1:73:5
-1:1
2:69:5
0:1
1:69:6
-1:1
3:48:6
0:0
3:34:6
0:1
7:26:7
1:0
3:18:8
0:0
2:35:8
0:0
1:37:8
-1:0
2:44:7
0:1
2:32:8
0:0
4:21:8
1:1
3:29:9
0:0
4:31:9
1:0
2:41:10
0:-1
3:30:10
0:-1
3:27:10
0:-1
2:24:10
0:0
2:18:10
0:0
0:29:10
-1:-1
2:48:9
0:-1
1:43:9
-1:-1
1:48:8
-1:0
1:30:7
-1:0
1:51:6
-1:0
1:46:5
-1:1
2:35:5
0:1
2:41:6
0:1
1:57:7
-1:0
8:29:6
2:-1
5:13:6
1:0
7:13:7
1:0
0:19:8
-1:0
0:2:7
-1:-1
9:9:6
2:1
13:7:8
2:0
3:4:9
0:-1
3:1:9
0:-1
12:6:9
2:0
8:3:10
2:-1
0:10:10
-1:0
10:6:9
2:0
0:6:10
-1:0
14:9:9
2:-1
13:9:9
2:-1
14:11:9
2:0
0:15:10
-1:-1
7:13:9
1:0
2:20:10
0:0
0:16:10
-1:-1
0:25:9
-1:-1
9:17:8
2:0
7:44:9
1:-1
7:53:9
1:1
5:14:10
1:0
0:6:11
-1:0
4:6:10
1:-1
5:2:10
1:-1
7:9:10
1:0
6:8:11
1:0
0:6:12
-1:-1
0:5:11
-1:0
0:7:10
-1:0
2:22:9
0:-1
7:43:9
1:-1
3:37:9
0:0
4:3:9
1:0
0:12:10
-1:0
9:15:9
2:-1
2:31:9
0:0
8:21:9
2:0
11:32:10
2:0
8:20:11
2:0
6:28:12
1:0
2:16:12
0:0
6:15:12
1:0
5:6:12
1:0
6:5:12
1:0
12:6:12
2:0
14:5:12
2:0
14:5:12
2:0
0:3:12
-1:0
7:6:11
1:0
13:6:12
2:0
13:5:12
2:0
6:12:12
1:-1
14:22:12
2:0
0:20:12
-1:0
4:1:11
1:-1
0:1:11
-1:-1
4:1:10
1:-1
14:22:10
2:-1
10:23:10
2:1
0:9:12
-1:0
4:1:11
1:-1
5:1:11
1:-1
3:25:11
0:0
5:21:11
1:0
10:12:12
2:-1
0:14:12
-1:0
6:5:11
1:0
12:6:12
2:0
14:5:12
2:0
14:5:12
2:0
14:5:12
2:0
14:5:12
2:0
14:5:12
2:0
14:4:12
2:0
14:6:12
2:0
14:5:12
2:0
3:6:12
0:-1
7:2:12
1:-1
8:1:12
2:-1
12:4:12
2:0
0:4:12
-1:-1
11:4:11
2:-1
12:2:11
2:-1
11:5:11
2:0
14:7:12
2:-1
9:17:12
2:0
14:12:12
2:0
1:19:12
-1:-1
2:1:11
0:-1
3:1:11
0:-1
4:1:11
1:-1
5:1:11
1:-1
6:1:11
1:-1
7:5:11
1:-1
0:10:11
-1:0
0:5:10
-1:0
5:1:9
1:-1
2:1:9
0:-1
10:2:9
2:-1
0:10:9
-1:0
5:10:8
1:-1
0:25:8
-1:0
1:14:7
-1:-1
0:13:6
-1:-1
8:21:5
2:1
3:22:7
0:0
2:13:7
0:0
2:5:7
0:-1
5:16:7
1:0
5:18:8
1:0
2:8:9
0:-1
9:9:9
2:-1
10:1:9
2:-1
14:4:9
2:0
0:3:10
-1:0
5:15:9
1:-1
3:22:9
0:-1
2:27:9
0:0
0:28:9
-1:0
3:23:8
0:-1
3:25:8
0:0
3:31:8
0:0
2:20:8
0:0
0:17:8
-1:0
7:20:7
1:1
7:18:8
1:1
7:18:9
1:1
7:18:10
1:0
6:18:11
1:0
7:17:12
1:0
0:1:12
-1:-1
7:22:11
1:1
7:18:12
1:0
7:18:12
1:0
7:18:12
1:0
7:18:12
1:0
0:16:12
-1:0
2:29:11
0:-1
3:23:11
0:0
1:25:11
-1:0
2:27:10
0:0
5:41:10
1:0
2:32:11
0:0
2:32:11
0:0
5:33:11
1:0
7:26:12
1:0
7:18:12
1:0
14:18:12
2:0
7:18:12
1:-1
7:18:12
1:0
9:23:12
2:-1
8:5:12
2:-1
5:4:12
1:0
5:8:12
1:0
0:9:12
-1:0
0:32:11
-1:1
1:73:11
-1:0
2:57:10
0:1
3:55:11
0:-1
1:15:11
-1:-1
3:34:10
0:0
2:21:10
0:0
0:39:10
-1:0
4:42:9
1:-1
2:29:9
0:0
2:29:9
0:0
3:26:9
0:0
2:29:9
0:0
0:16:9
-1:-1
1:46:8
-1:0
2:29:7
0:0
5:25:7
1:0
3:39:8
0:1
4:41:9
1:1
0:53:10
-1:-1
2:27:9
0:0
3:27:9
0:0
0:27:9
-1:0
3:24:8
0:-1
0:16:8
-1:0
4:48:7
1:0
0:39:8
-1:1
2:31:8
0:0
0:32:8
-1:1
3:38:8
0:-1
0:49:8
-1:1
3:37:8
0:0
4:20:8
1:-1
4:18:8
1:-1
2:23:8
0:0
0:17:8
-1:-1
7:68:7
1:-1
7:84:7
1:0
13:81:8
2:-1
6:42:8
1:0
0:30:9
-1:-1
8:12:8
2:-1
2:7:8
0:0
9:7:8
2:0
0:8:9
-1:0
14:10:8
2:0
3:8:9
0:0
0:3:9
-1:-1
14:19:8
2:0
14:22:9
2:0
8:50:10
2:0
4:20:11
1:0
2:1:12
0:-1
5:5:12
1:-1
0:2:12
-1:-1
1:21:11
-1:-1
2:35:10
0:0
3:21:10
0:0
3:26:10
0:0
3:24:10
0:0
3:14:10
0:0
5:14:10
1:0
0:11:11
-1:0
13:21:10
2:1
4:24:12
1:1
7:15:12
1:-1
4:16:12
1:0
12:9:12
2:0
6:7:12
1:-1
13:7:12
2:0
1:1:12
-1:-1
3:9:11
0:0
4:6:11
1:-1
0:16:11
-1:-1
14:33:10
2:-1
7:11:10
1:0
1:24:11
-1:-1
1:35:10
-1:0
1:35:9
-1:0
0:34:8
-1:0
0:38:7
-1:0
1:37:6
-1:0
0:20:5
-1:-1
0:9:4
-1:0
1:25:3
-1:-1
1:47:2
-1:1
1:39:2
-1:1
1:37:2
-1:1
3:44:2
0:1
1:38:3
-1:1
1:36:3
-1:1
1:33:3
-1:0
4:33:2
1:0
0:24:3
-1:1
0:2:3
-1:0
2:65:2
0:1
1:39:3
-1:1
0:41:3
-1:1
2:40:3
0:0
0:35:3
-1:-1
0:27:2
-1:1
14:29:2
2:-1
2:43:2
0:-1
2:26:2
0:0
1:35:2
-1:1
1:46:2
-1:0
1:38:1
-1:1
1:45:1
-1:1
0:39:1
-1:1
0:35:1
-1:1
7:44:1
1:1
0:6:2
-1:0
1:70:1
-1:1
1:40:1
-1:1
1:37:1
-1:1
1:39:1
-1:1
2:32:1
0:1
0:31:2
-1:1
14:30:2
2:0
2:43:3
0:0
1:36:3
-1:1
2:37:3
0:1
1:48:4
-1:1
1:39:4
-1:0
1:41:3
-1:1
0:31:3
-1:1
0:26:3
-1:0
7:45:2
1:1
7:17:3
1:0
0:6:4
-1:1
7:7:4
1:1
14:7:5
2:1
4:53:7
1:-1
9:41:7
2:0
4:15:8
1:-1
11:2:8
2:-1
14:6:8
2:0
7:19:9
1:0
14:21:10
2:0
5:20:11
1:0
0:16:12
-1:0
11:27:11
2:0
5:19:12
1:0
4:30:12
1:-1
5:35:12
1:0
9:31:12
2:0
5:16:12
1:-1
7:15:12
1:0
4:16:12
1:0
14:16:12
2:1
11:12:12
2:-1
14:30:12
2:0
0:22:12
-1:-1
5:53:11
1:-1
4:46:11
1:0
6:34:12
1:0
2:9:12
0:-1
7:5:12
1:0
10:16:12
2:-1
14:8:12
2:0
2:11:12
0:-1
14:30:12
2:0
0:22:12
-1:0
1:36:11
-1:-1
7:50:10
1:-1
0:54:10
-1:0
14:34:9
2:0
7:39:10
1:0
10:28:11
2:1
5:20:12
1:0
0:3:12
-1:-1
13:8:11
2:0
11:29:12
2:0
0:35:12
-1:0
3:4:11
0:0
0:8:11
-1:0
12:32:10
2:0
9:13:11
2:0
2:8:12
0:0
11:22:12
2:-1
0:32:12
-1:0
0:15:11
-1:-1
8:20:10
2:0
8:11:11
2:0
1:13:12
-1:0
14:35:11
2:-1
4:5:11
1:0
0:7:12
-1:0
14:26:11
2:-1
6:17:11
1:0
0:9:12
-1:0
7:16:11
1:-1
11:28:11
2:0
0:9:12
-1:0
6:12:11
1:0
2:7:12
0:-1
0:10:12
-1:0
14:29:11
2:-1
0:22:11
-1:0
13:24:10
2:-1
1:23:10
-1:1
0:1:10
-1:-1
2:1:9
0:-1
2:1:9
0:-1
5:5:9
1:0
6:6:10
1:0
8:4:11
2:-1
0:2:11
-1:-1
0:4:10
-1:-1
0:1:9
-1:-1
0:1:8
-1:-1
0:1:7
-1:-1
2:1:6
0:-1
5:8:6
1:-1
1:5:6
-1:0
0:6:5
-1:-1
0:2:4
-1:-1
1:4:3
-1:1
5:6:3
1:-1
1:2:3
-1:0
0:4:2
-1:0
0:2:1
-1:-1
0:2:1
-1:1
0:1:1
-1:-1
3:25:1
0:-1
0:18:1
-1:-1
14:29:1
2:1
0:18:3
-1:1
0:3:3
-1:0
14:27:2
2:-1
0:20:2
-1:0
14:30:1
2:1
0:14:3
-1:0
2:20:2
0:0
0:10:2
-1:1
2:8:2
0:0
4:2:2
1:0
3:6:3
0:-1
3:50:3
0:-1
3:32:3
0:0
1:34:3
-1:1
4:17:3
1:0
7:21:4
1:0
6:28:5
1:0
3:33:6
0:0
12:4:6
2:0
0:4:7
-1:0
7:1:6
1:-1
2:6:6
0:0
6:11:6
1:-1
14:9:6
2:1
14:9:8
2:1
14:9:10
2:1
11:11:12
2:0
8:17:12
2:0
5:37:12
1:-1
7:94:12
1:1
7:100:12
1:1
5:60:12
1:1
0:29:12
-1:0
6:16:11
1:-1
0:6:11
-1:0
2:9:10
0:0
2:7:10
0:0
2:13:10
0:0
0:16:10
-1:0
0:2:9
-1:-1
11:8:8
2:0
14:9:9
2:0
0:8:10
-1:0
3:6:9
0:0
4:16:9
1:0
3:17:10
0:0
0:12:10
-1:0
10:6:9
2:0
14:9:10
2:0
0:4:11
-1:0
4:4:10
1:0
6:13:11
1:0
8:8:12
2:0
0:6:12
-1:0
13:9:11
2:0
0:12:12
-1:0
0:10:11
-1:-1
14:34:10
2:-1
14:45:10
2:0
14:45:11
2:0
0:21:12
-1:0
4:7:11
1:-1
7:3:11
1:0
1:2:12
-1:-1
0:3:11
-1:-1
1:4:10
-1:-1
2:4:9
0:-1
0:7:9
-1:-1
14:4:8
2:0
6:8:9
1:0
4:6:10
1:0
7:9:11
1:0
14:10:12
2:0
1:9:12
-1:0
3:3:11
0:-1
7:4:11
1:0
2:5:12
0:-1
14:14:12
2:0
0:16:12
-1:1
4:3:12
1:0
8:4:12
2:0
4:8:12
1:-1
0:15:12
-1:0
0:8:11
-1:-1
0:12:10
-1:-1
7:24:9
1:1
0:13:10
-1:0
7:14:9
1:0
6:17:10
1:0
8:14:11
2:1
0:6:12
-1:-1
2:3:11
0:-1
1:2:11
-1:-1
6:17:10
1:-1
2:24:10
0:1
4:5:11
1:-1
0:3:11
-1:-1
0:2:10
-1:-1
3:2:9
0:-1
2:2:9
0:-1
0:11:9
-1:-1
2:46:8
0:0
7:81:8
1:0
0:80:9
-1:1
5:34:9
1:0
6:1:10
1:-1
0:1:10
-1:-1
8:25:9
2:-1
11:18:9
2:0
5:16:10
1:0
0:0:11
-1:-1
0:8:10
-1:0
2:11:9
0:0
5:32:9
1:0
5:17:10
1:0
4:0:11
1:-1
14:9:11
2:0
7:11:12
1:-1
0:22:12
-1:0
0:20:11
-1:1
9:4:11
2:-1
2:12:11
0:0
14:18:11
2:0
7:15:12
1:0
13:10:12
2:0
14:9:12
2:0
10:5:12
2:-1
0:0:12
-1:-1
9:8:11
2:-1
14:9:11
2:0
4:8:12
1:0
5:11:12
1:-1
11:29:12
2:1
0:21:12
-1:1
4:7:12
1:0
9:6:12
2:0
0:12:12
-1:0
3:4:11
0:-1
0:3:11
-1:-1
2:20:10
0:0
7:27:10
1:-1
10:16:10
2:0
0:16:11
-1:0
2:5:10
0:-1
0:8:10
-1:-1
0:28:9
-1:-1
2:4:8
0:-1
10:3:8
2:-1
0:1:8
-1:-1
4:4:7
1:-1
14:10:7
2:-1
7:16:7
1:0
3:9:8
0:0
4:22:8
1:0
6:13:9
1:0
0:10:10
-1:0
6:10:9
1:1
8:8:10
2:0
5:8:11
1:-1
1:11:11
-1:-1
0:32:10
-1:0
0:35:9
-1:0
1:48:8
-1:0
0:45:7
-1:0
1:52:6
-1:0
0:53:5
-1:-1
0:57:4
-1:1
2:42:4
0:0
0:58:4
-1:1
0:41:4
-1:0
1:40:3
-1:-1
0:47:2
-1:1
2:48:2
0:1
0:11:3
-1:1
14:4:3
2:0
7:4:4
1:0
0:3:5
-1:-1
0:2:4
-1:0
14:3:3
2:-1
3:15:3
0:-1
3:19:3
0:1
4:13:4
1:1
4:13:5
1:1
4:13:6
1:1
4:16:7
1:1
5:11:8
1:0
6:7:9
1:0
7:6:10
1:0
1:20:11
-1:-1
6:33:10
1:-1
7:20:10
1:0
6:21:11
1:0
7:27:12
1:-1
5:35:12
1:0
12:9:12
2:-1
6:12:12
1:0
11:7:12
2:0
6:11:12
1:0
11:9:12
2:0
14:12:12
2:0
14:5:12
2:-1
14:10:12
2:0
2:29:12
0:0
2:28:12
0:0
0:29:12
-1:-1
2:32:11
0:0
1:26:11
-1:-1
1:32:10
-1:0
1:31:9
-1:0
1:27:8
-1:0
1:30:7
-1:0
1:30:6
-1:0
1:37:5
-1:0
1:31:4
-1:0
1:29:3
-1:1
1:30:3
-1:1
1:27:3
-1:0
1:29:2
-1:1
1:29:2
-1:1
1:37:2
-1:1
2:49:2
0:0
0:35:2
-1:1
2:45:2
0:-1
3:36:2
0:1
3:36:3
0:1
0:28:4
-1:1
4:23:4
1:1
5:25:5
1:1
5:21:6
1:0
5:16:7
1:1
5:21:8
1:1
8:20:9
2:-1
5:17:9
1:-1
6:16:9
1:-1
0:24:9
-1:0
7:21:8
1:1
7:20:9
1:1
6:21:10
1:1
7:20:11
1:1
7:20:12
1:0
1:28:12
-1:-1
2:36:11
0:-1
1:35:11
-1:-1
3:32:10
0:0
2:26:10
0:-1
1:27:10
-1:0
1:31:9
-1:0
1:28:8
-1:0
1:34:7
-1:0
1:33:6
-1:0
1:29:5
-1:0
1:28:4
-1:0
1:30:3
-1:1
1:29:3
-1:0
1:27:2
-1:1
1:31:2
-1:1
2:77:2
0:0
3:64:2
0:1
3:65:3
0:1
4:50:4
1:0
2:47:5
0:1
5:46:6
1:1
5:33:7
1:1
9:33:8
2:1
5:33:10
1:0
4:48:11
1:-1
4:36:11
1:1
5:31:12
1:0
5:33:12
1:0
1:53:12
-1:0
1:18:11
-1:-1
0:84:10
-1:0
1:71:9
-1:1
1:74:9
-1:1
4:51:9
1:-1
3:33:9
0:-1
3:40:9
0:1
2:30:10
0:0
2:42:10
0:0
2:24:10
0:-1
2:32:10
0:0
2:36:10
0:0
1:25:10
-1:0
3:14:9
0:0
3:12:9
0:0
4:10:9
1:-1
4:29:9
1:0
3:29:10
0:0
2:30:10
0:0
2:27:10
0:0
3:30:10
0:0
0:18:10
-1:-1
1:72:9
-1:-1
1:62:8
-1:1
1:44:8
-1:-1
4:35:7
1:0
2:35:8
0:-1
4:36:8
1:1
3:16:9
0:0
1:38:9
-1:0
1:35:8
-1:0
4:41:7
1:1
0:39:8
-1:0
3:37:7
0:1
3:31:8
0:0
7:30:8
1:-1
4:37:8
1:0
2:34:9
0:0
3:30:9
0:0
2:31:9
0:0
3:28:9
0:0
2:29:9
0:-1
1:61:9
-1:0
2:55:8
0:1
2:52:9
0:0
4:42:9
1:-1
3:38:9
0:0
3:37:9
0:1
0:19:10
-1:-1
2:32:9
0:0
2:31:9
0:0
3:32:9
0:-1
3:35:9
0:0
3:34:9
0:-1
3:27:9
0:0
7:31:9
1:0
0:42:10
-1:0
0:28:9
-1:-1
0:32:8
-1:0
3:26:7
0:-1
0:32:7
-1:0
8:24:6
2:-1
0:39:6
-1:-1
1:49:5
-1:-1
1:45:4
-1:1
2:36:4
0:1
1:47:5
-1:1
3:48:5
0:1
2:41:6
0:0
1:34:6
-1:0
1:43:5
-1:1
3:52:5
0:0
11:12:5
2:1
7:13:7
1:-1
1:15:7
-1:0
0:13:6
-1:0
8:8:5
2:1
13:8:7
2:1
3:3:9
0:-1
3:1:9
0:-1
13:6:9
2:0
7:2:10
1:-1
0:10:10
-1:0
10:6:9
2:0
0:5:10
-1:0
5:4:9
1:-1
8:16:9
2:0
14:12:10
2:0
7:19:11
1:0
3:7:12
0:-1
7:15:12
1:0
4:28:12
1:0
4:12:12
1:-1
1:36:12
-1:0
0:11:11
-1:-1
7:61:10
1:-1
0:48:10
-1:1
9:13:10
2:-1
0:9:10
-1:0
4:7:9
1:-1
5:6:9
1:0
7:9:10
1:0
7:8:11
1:0
7:9:12
1:0
5:2:12
1:-1
14:8:12
2:0
11:7:12
2:-1
6:41:12
1:0
8:61:12
2:0
6:0:12
1:-1
0:9:12
-1:0
6:14:11
1:0
11:29:12
2:1
0:19:12
-1:0
10:30:11
2:0
1:17:12
-1:0
10:21:11
2:-1
7:17:11
1:0
1:20:12
-1:1
6:7:12
1:-1
5:5:12
1:0
6:5:12
1:0
12:6:12
2:0
14:5:12
2:0
14:5:12
2:0
14:5:12
2:0
14:6:12
2:0
3:4:12
0:-1
8:5:12
2:0
7:14:12
1:-1
14:23:12
2:0
0:24:12
-1:0
4:1:11
1:-1
0:1:11
-1:-1
4:1:10
1:-1
14:22:10
2:-1
12:24:10
2:1
4:9:12
1:0
5:1:12
1:-1
3:24:12
0:0
0:22:12
-1:0
14:14:11
2:0
0:11:12
-1:0
3:4:11
0:-1
8:5:11
2:0
13:5:12
2:0
14:5:12
2:0
14:5:12
2:0
14:5:12
2:0
14:5:12
2:0
14:4:12
2:0
14:6:12
2:0
14:5:12
2:0
3:7:12
0:-1
7:2:12
1:-1
8:1:12
2:-1
12:4:12
2:0
12:4:12
2:0
1:3:12
-1:-1
11:1:11
2:-1
12:2:11
2:-1
12:4:11
2:0
14:7:12
2:-1
9:17:12
2:0
13:10:12
2:0
2:19:12
0:-1
2:1:12
0:-1
0:1:12
-1:-1
5:1:11
1:-1
6:3:11
1:-1
2:0:11
0:-1
0:7:11
-1:0
0:6:10
-1:-1
5:1:9
1:-1
2:1:9
0:-1
7:1:9
1:-1
0:8:9
-1:0
0:5:8
-1:-1
0:25:7
-1:0
2:16:6
0:-1
0:7:6
-1:-1
0:12:5
-1:-1
0:21:4
-1:1
6:24:4
1:0
2:14:5
0:0
2:5:5
0:-1
5:16:5
1:1
5:18:6
1:1
2:8:7
0:0
9:7:7
2:-1
10:1:7
2:-1
14:4:7
2:0
0:3:8
-1:0
2:23:7
0:-1
3:19:7
0:0
3:21:7
0:0
2:29:7
0:0
2:46:7
0:1
3:45:8
0:1
3:21:9
0:0
3:21:9
0:0
0:3:9
-1:-1
7:22:8
1:1
6:19:9
1:1
6:19:10
1:1
7:18:11
1:0
7:20:12
1:0
0:14:12
-1:0
7:22:11
1:1
7:18:12
1:0
7:18:12
1:0
7:20:12
1:0
7:18:12
1:0
0:15:12
-1:0
3:26:11
0:0
1:25:11
-1:0
2:26:10
0:0
2:41:10
0:0
2:54:10
0:1
2:38:11
0:-1
1:26:11
-1:0
3:32:10
0:-1
7:21:10
1:0
7:16:11
1:0
7:18:12
1:0
14:18:12
2:0
0:16:12
-1:-1
5:32:11
1:1
7:18:12
1:0
7:18:12
1:0
11:10:12
2:0
8:7:12
2:-1
3:12:12
0:-1
1:74:12
-1:-1
3:55:11
0:0
2:60:11
0:1
1:12:12
-1:-1
1:35:11
-1:0
2:28:10
0:0
2:17:10
0:0
1:36:10
-1:-1
2:31:9
0:0
2:27:9
0:0
5:28:9
1:-1
2:26:9
0:0
0:27:9
-1:0
2:28:8
0:-1
3:52:8
0:1
0:38:9
-1:0
8:28:8
2:0
4:25:9
1:0
3:33:10
0:-1
0:33:10
-1:0
3:23:9
0:0
3:23:9
0:0
3:25:9
0:-1
2:28:9
0:0
0:17:9
-1:-1
2:58:8
0:-1
2:41:8
0:1
4:30:9
1:-1
7:36:9
1:0
5:27:10
1:0
0:35:11
-1:0
6:28:10
1:-1
1:16:10
-1:0
4:15:9
1:-1
3:23:9
0:0
0:22:9
-1:0
3:60:8
0:-1
7:87:8
1:0
9:82:9
2:0
6:56:10
1:1
1:27:11
-1:-1
8:15:10
2:-1
2:7:10
0:0
9:7:10
2:0
0:12:11
-1:0
14:10:10
2:0
3:5:11
0:-1
13:6:11
2:-1
14:22:11
2:-1
14:30:11
2:1
12:32:12
2:0
0:24:12
-1:1
0:1:12
-1:-1
6:5:11
1:-1
1:1:11
-1:-1
2:9:10
0:-1
3:24:10
0:0
4:16:10
1:0
4:19:11
1:0
4:15:12
1:0
5:12:12
1:0
2:12:12
0:0
3:13:12
0:-1
13:19:12
2:-1
14:22:12
2:1
14:20:12
2:0
0:9:12
-1:-1
10:12:11
2:-1
3:6:11
0:-1
11:8:11
2:0
1:3:12
-1:0
3:9:11
0:0
4:6:11
1:-1
0:17:11
-1:-1
14:32:10
2:-1
7:11:10
1:0
0:18:11
-1:-1
1:40:10
-1:-1
1:37:9
-1:0
1:30:8
-1:0
1:39:7
-1:0
1:40:6
-1:0
3:20:5
0:-1
0:8:5
-1:-1
1:24:4
-1:-1
0:48:3
-1:1
1:40:3
-1:1
1:37:3
-1:1
0:46:3
-1:0
1:36:2
-1:-1
1:40:1
-1:1
1:32:1
-1:1
5:34:1
1:1
0:25:2
-1:1
1:71:2
-1:1
1:37:2
-1:1
0:40:2
-1:1
1:41:2
-1:1
2:31:2
0:-1
0:28:2
-1:1
14:32:2
2:-1
2:41:2
0:-1
2:28:2
0:1
2:34:3
0:1
1:47:4
-1:1
1:38:4
-1:1
1:45:4
-1:1
0:38:4
-1:1
0:30:4
-1:0
8:43:3
2:1
0:6:5
-1:-1
1:72:4
-1:0
1:43:3
-1:1
1:34:3
-1:1
2:40:3
0:0
1:31:3
-1:1
0:29:3
-1:1
14:29:3
2:0
0:45:4
-1:0
1:40:3
-1:1
1:35:3
-1:1
0:42:3
-1:1
1:44:3
-1:-1
1:37:2
-1:1
2:36:2
0:1
0:29:3
-1:0
1:43:2
-1:0
4:20:1
1:-1
12:9:1
2:1
5:6:3
1:-1
12:7:3
2:1
6:37:5
1:0
4:37:6
1:0
3:22:7
0:0
13:6:7
2:0
14:7:8
2:0
8:19:9
2:0
14:20:10
2:0
6:21:11
1:1
0:17:12
-1:0
9:27:11
2:-1
5:18:11
1:0
5:35:12
1:-1
4:27:12
1:0
6:25:12
1:0
2:24:12
0:1
12:16:12
2:0
14:23:12
2:0
14:6:12
2:0
11:9:12
2:-1
14:30:12
2:0
0:20:12
-1:-1
5:48:11
1:-1
4:58:11
1:0
6:44:12
1:0
6:15:12
1:0
5:8:12
1:0
5:8:12
1:-1
14:10:12
2:0
2:12:12
0:-1
14:29:12
2:0
0:20:12
-1:0
2:36:11
0:-1
7:53:11
1:-1
5:55:11
1:0
14:33:12
2:0
9:34:12
2:0
10:25:12
2:0
5:20:12
1:0
0:3:12
-1:-1
14:9:11
2:0
12:28:12
2:0
0:36:12
-1:1
13:8:12
2:0
1:20:12
-1:0
0:34:11
-1:-1
8:1:10
2:-1
2:7:10
0:0
11:29:10
2:-1
3:19:10
0:1
4:19:11
1:-1
7:20:11
1:-1
5:17:11
1:0
0:14:12
-1:0
14:27:11
2:-1
4:15:11
1:1
14:6:12
2:0
14:19:12
2:-1
2:25:12
0:0
12:7:12
2:0
0:2:12
-1:-1
10:18:11
2:0
0:30:12
-1:1
2:4:12
0:-1
0:12:12
-1:0
5:13:11
1:0
4:14:12
1:0
14:25:12
2:0
0:18:12
-1:0
14:27:11
2:-1
1:23:11
-1:0
0:1:10
-1:-1
2:1:9
0:-1
2:1:9
0:-1
5:5:9
1:0
6:6:10
1:0
8:3:11
2:-1
0:2:11
-1:-1
2:5:10
0:-1
0:6:10
-1:-1
11:7:9
2:0
1:12:10
-1:-1
0:4:9
-1:-1
0:2:8
-1:-1
0:1:7
-1:-1
0:2:6
-1:-1
0:1:5
-1:-1
14:24:4
2:-1
0:20:4
-1:0
14:31:3
2:0
0:16:4
-1:0
0:4:3
-1:0
14:27:2
2:-1
0:18:2
-1:0
14:28:1
2:1
0:15:3
-1:1
0:1:3
-1:-1
0:1:2
-1:-1
2:20:1
0:-1
1:8:1
-1:1
1:6:1
-1:-1
4:4:1
1:1
3:7:2
0:-1
3:51:2
0:-1
3:30:2
0:0
4:33:2
1:0
3:29:3
0:1
8:25:4
2:-1
5:34:4
1:1
6:21:5
1:0
14:4:6
2:0
6:1:7
1:-1
14:5:7
2:0
2:9:8
0:-1
11:9:8
2:1
14:9:10
2:1
14:9:12
2:0
14:9:12
2:0
7:17:12
1:0
4:16:12
1:0
4:68:12
1:1
7:101:12
1:1
0:101:12
-1:0
0:17:11
-1:-1
3:25:10
0:-1
0:9:10
-1:0
3:12:9
0:0
2:11:9
0:0
4:13:9
1:0
3:13:10
0:0
0:4:10
-1:-1
10:7:9
2:0
14:10:10
2:0
3:7:11
0:0
0:0:11
-1:-1
3:6:10
0:0
4:13:10
1:0
3:16:11
0:0
0:13:11
-1:0
10:6:10
2:0
14:9:11
2:0
0:4:12
-1:0
5:5:11
1:0
8:7:12
2:0
8:10:12
2:0
0:8:12
-1:0
11:7:11
2:0
14:11:12
2:0
0:3:12
-1:-1
0:10:11
-1:-1
3:45:10
0:0
13:41:10
2:0
1:42:11
-1:-1
0:5:10
-1:-1
5:5:9
1:-1
8:3:9
2:0
2:2:10
0:-1
0:2:10
-1:-1
1:4:9
-1:-1
2:5:8
0:-1
3:7:8
0:-1
10:4:8
2:0
3:6:9
0:0
14:6:9
2:0
0:1:10
-1:-1
12:3:9
2:-1
14:5:9
2:0
0:4:10
-1:-1
5:4:9
1:-1
9:4:9
2:0
14:4:10
2:-1
0:11:10
-1:0
3:7:9
0:-1
7:4:9
1:0
3:4:10
0:-1
0:10:10
-1:-1
1:14:9
-1:-1
0:9:8
-1:-1
12:21:7
2:-1
3:23:7
0:-1
0:0:7
-1:-1
8:11:6
2:0
6:16:7
1:0
6:21:8
1:1
0:2:9
-1:-1
1:2:8
-1:-1
1:3:7
-1:-1
6:19:6
1:-1
0:24:6
-1:1
5:4:6
1:-1
0:1:6
-1:-1
0:2:5
-1:-1
3:2:4
0:-1
2:2:4
0:0
0:13:4
-1:-1
2:46:3
0:1
7:84:4
1:0
0:81:5
-1:1
5:34:5
1:0
6:1:6
1:-1
0:1:6
-1:-1
4:23:5
1:-1
3:29:5
0:0
5:15:5
1:0
9:2:6
2:-1
0:10:6
-1:0
10:29:5
2:0
4:18:6
1:1
2:1:7
0:-1
10:2:7
2:-1
2:6:7
0:0
9:16:7
2:-1
2:24:7
0:0
8:8:7
2:0
12:3:8
2:-1
14:17:8
2:0
0:19:9
-1:-1
9:13:8
2:-1
14:10:8
2:1
0:10:10
-1:1
0:2:10
-1:-1
8:5:9
2:-1
14:9:9
2:1
4:8:11
1:0
2:8:12
0:-1
9:27:12
2:0
0:21:12
-1:1
10:9:12
2:0
4:5:12
1:-1
0:8:12
-1:0
3:4:11
0:-1
2:3:11
0:-1
0:21:11
-1:0
0:23:10
-1:-1
2:23:9
0:0
2:13:9
0:-1
4:0:9
1:-1
2:26:9
0:0
0:3:9
-1:-1
2:4:8
0:-1
10:3:8
2:-1
0:3:8
-1:-1
4:3:7
1:0
14:13:8
2:-1
8:15:8
2:-1
3:10:8
0:0
4:24:8
1:0
6:14:9
1:0
0:9:10
-1:0
6:8:9
1:0
7:6:10
1:0
0:10:11
-1:0
5:3:10
1:-1
0:17:10
-1:-1
1:29:9
-1:-1
0:47:8
-1:0
1:41:7
-1:0
1:42:6
-1:0
0:25:5
-1:-1
0:55:4
-1:0
1:32:3
-1:1
0:51:3
-1:1
1:44:3
-1:-1
0:31:2
-1:-1
0:53:1
-1:-1
0:57:1
-1:-1
1:49:1
-1:1
4:60:1
1:-1
3:13:1
0:1
13:8:2
2:-1
14:1:2
2:-1
0:3:2
-1:-1
14:3:1
2:-1
12:2:1
2:-1
4:24:1
1:-1
3:32:1
0:-1
0:14:1
-1:-1
4:16:1
1:-1
6:14:1
1:1
6:13:2
1:1
7:13:3
1:1
2:20:4
0:0
7:27:4
1:0
7:40:5
1:0
5:17:6
1:0
2:34:7
0:0
5:19:7
1:0
14:7:8
2:0
0:7:9
-1:0
14:8:8
2:-1
0:5:8
-1:0
9:5:7
2:0
14:9:8
2:0
13:5:9
2:-1
14:6:9
2:0
1:34:10
-1:-1
1:31:9
-1:0
1:30:8
-1:0
1:35:7
-1:0
1:31:6
-1:0
2:29:5
0:-1
2:30:5
0:0
1:27:5
-1:0
1:30:4
-1:0
1:29:3
-1:0
2:27:2
0:0
2:28:2
0:-1
2:28:2
0:-1
2:28:2
0:-1
2:30:2
0:-1
1:30:2
-1:1
3:29:2
0:1
1:25:3
-1:-1
3:41:2
0:0
1:33:2
-1:1
3:34:2
0:1
3:38:3
0:1
4:20:4
1:1
4:31:5
1:1
4:23:6
1:0
6:14:7
1:0
5:19:8
1:1
6:20:9
1:1
5:21:10
1:1
6:15:11
1:0
0:16:12
-1:0
7:26:11
1:0
2:25:12
0:0
7:18:12
1:0
7:21:12
1:1
7:22:12
1:-1
7:21:12
1:0
1:18:12
-1:0
1:36:11
-1:-1
2:42:10
0:0
1:32:10
-1:-1
1:29:9
-1:-1
1:29:8
-1:0
1:36:7
-1:0
1:30:6
-1:0
1:31:5
-1:0
1:30:4
-1:0
1:34:3
-1:1
1:20:3
-1:0
3:25:2
0:1
1:32:3
-1:1
3:27:3
0:0
1:33:3
-1:1
2:41:3
0:0
3:56:3
0:1
4:44:4
1:1
3:48:5
0:1
3:43:6
0:0
5:54:6
1:-1
4:33:6
1:1
4:30:7
1:1
5:33:8
1:0
9:39:9
2:0
4:42:10
1:0
5:33:11
1:1
5:32:12
1:0
5:32:12
1:0
13:35:12
2:-1
1:88:12
-1:-1
2:63:11
0:0
1:76:11
-1:0
2:58:10
0:0
3:37:10
0:1
3:40:11
0:0
1:39:11
-1:0
2:28:10
0:0
1:35:10
-1:0
2:35:9
0:0
2:23:9
0:0
2:33:9
0:0
2:5:9
0:-1
3:10:9
0:0
5:5:9
1:0
5:6:10
1:0
4:14:11
1:0
1:38:12
-1:-1
2:29:11
0:0
2:27:11
0:0
3:33:11
0:0
0:22:11
-1:-1
2:67:10
0:-1
1:62:10
-1:0
1:56:9
-1:1
3:47:9
0:0
4:34:9
1:1
3:40:10
0:1
2:27:11
0:0
2:42:11
0:0
0:37:11
-1:0
2:35:10
0:0
0:38:10
-1:0
0:27:9
-1:0
3:31:8
0:0
3:29:8
0:1
0:39:9
-1:0
1:30:8
-1:0
3:21:7
0:0
3:24:7
0:0
3:23:7
0:0
1:25:7
-1:-1
2:53:6
0:-1
3:57:6
0:1
2:55:7
0:1
3:47:8
0:0
3:36:8
0:1
4:40:9
1:1
1:34:10
-1:-1
1:23:9
-1:0
1:30:8
-1:0
2:37:7
0:0
1:45:7
-1:0
3:36:6
0:-1
3:28:6
0:1
3:32:7
0:1
0:39:8
-1:0
2:30:7
0:1
2:28:8
0:0
0:28:8
-1:-1
4:26:7
1:0
8:22:8
2:-1
1:47:8
-1:-1
1:40:7
-1:-1
2:25:6
0:0
2:33:6
0:-1
2:41:6
0:-1
2:32:6
0:1
2:37:7
0:0
2:38:7
0:0
0:46:7
-1:0
4:47:6
1:0
11:11:7
2:1
7:13:9
1:-1
1:15:9
-1:0
0:14:8
-1:0
8:8:7
2:1
13:8:9
2:0
3:3:10
0:-1
3:1:10
0:-1
13:7:10
2:0
7:2:11
1:-1
0:10:11
-1:0
10:6:10
2:0
0:5:11
-1:0
5:4:10
1:-1
8:15:10
2:0
14:11:11
2:-1
7:16:11
1:-1
6:12:11
1:-1
7:13:11
1:0
0:26:12
-1:-1
2:26:11
0:0
5:19:11
1:-1
4:28:11
1:-1
6:57:11
1:0
4:33:12
1:1
9:2:12
2:-1
1:11:12
-1:0
4:5:11
1:-1
6:4:11
1:-1
8:8:11
2:0
6:2:12
1:-1
8:12:12
2:0
2:5:12
0:-1
14:9:12
2:0
5:9:12
1:-1
7:45:12
1:-1
0:60:12
-1:-1
8:1:11
2:-1
5:4:11
1:0
6:14:12
1:-1
11:27:12
2:0
2:19:12
0:0
3:21:12
0:0
0:25:12
-1:0
10:28:11
2:-1
0:18:11
-1:-1
5:12:10
1:-1
5:6:10
1:0
6:5:11
1:0
12:6:12
2:0
14:5:12
2:0
14:5:12
2:0
14:5:12
2:0
14:6:12
2:0
14:6:12
2:0
14:5:12
2:0
7:13:12
1:-1
14:25:12
2:1
4:23:12
1:0
0:1:12
-1:-1
4:1:11
1:-1
14:23:11
2:-1
14:26:11
2:1
4:7:12
1:-1
5:1:12
1:-1
3:24:12
0:0
9:19:12
2:0
12:15:12
2:-1
0:13:12
-1:0
7:7:11
1:0
12:5:12
2:0
3:3:12
0:-1
8:5:12
2:0
13:5:12
2:0
14:5:12
2:0
14:5:12
2:0
14:5:12
2:0
14:5:12
2:0
14:5:12
2:0
3:7:12
0:-1
7:2:12
1:-1
8:1:12
2:-1
12:4:12
2:0
12:3:12
2:0
13:3:12
2:0
13:2:12
2:-1
14:4:12
2:0
13:6:12
2:-1
9:17:12
2:0
14:13:12
2:0
1:16:12
-1:-1
2:1:11
0:-1
2:1:11
0:-1
4:1:11
1:-1
3:1:11
0:-1
5:1:11
1:-1
6:2:11
1:-1
9:6:11
2:-1
5:12:11
1:0
2:1:12
0:-1
9:1:12
2:-1
0:13:12
-1:0
5:10:11
1:-1
0:25:11
-1:0
1:13:10
-1:-1
0:13:9
-1:-1
8:21:8
2:0
3:22:9
0:0
2:13:9
0:-1
2:5:9
0:-1
5:16:9
1:0
5:19:10
1:0
2:6:11
0:-1
9:11:11
2:-1
11:2:11
2:-1
14:4:11
2:0
1:10:12
-1:-1
3:16:11
0:-1
3:21:11
0:0
1:25:11
-1:0
2:34:10
0:0
2:30:10
0:-1
5:26:10
1:0
3:18:11
0:0
3:19:11
0:0
0:11:11
-1:-1
7:22:10
1:1
7:18:11
1:0
7:17:12
1:0
7:17:12
1:0
7:18:12
1:0
14:17:12
2:-1
0:1:12
-1:-1
7:22:11
1:1
7:18:12
1:-1
7:18:12
1:0
7:18:12
1:0
7:18:12
1:0
0:16:12
-1:0
2:23:11
0:-1
1:25:11
-1:0
2:22:10
0:0
2:40:10
0:0
2:37:10
0:0
2:29:10
0:-1
3:40:10
0:0
7:36:10
1:0
7:22:11
1:0
7:18:12
1:0
7:18:12
1:0
7:18:12
1:0
0:17:12
-1:0
12:34:11
2:0
8:15:12
2:-1
3:7:12
0:0
7:7:12
1:0
0:11:12
-1:0
1:40:11
-1:1
2:68:11
0:0
2:56:11
0:0
3:52:11
0:0
2:15:11
0:-1
1:21:11
-1:-1
2:24:10
0:0
3:25:10
0:-1
3:30:10
0:-1
3:30:10
0:0
2:26:10
0:0
2:29:10
0:0
3:25:10
0:0
0:31:10
-1:-1
2:34:9
0:-1
3:62:9
0:0
5:37:9
1:0
5:33:10
1:-1
3:27:10
0:0
2:45:10
0:0
0:42:10
-1:0
2:23:9
0:0
4:19:9
1:0
4:16:10
1:0
0:19:11
-1:0
0:18:10
-1:-1
3:72:9
0:1
4:33:10
1:1
0:17:11
-1:0
2:40:10
0:0
2:48:10
0:0
3:50:10
0:1
2:32:11
0:-1
4:18:11
1:0
0:14:12
-1:0
0:16:11
-1:0
0:23:10
-1:0
8:47:9
2:-1
7:86:9
1:1
10:75:10
2:0
2:54:11
0:1
0:28:12
-1:-1
7:19:11
1:-1
0:6:11
-1:0
8:8:10
2:0
0:7:11
-1:0
14:14:10
2:-1
3:7:10
0:0
13:5:10
2:-1
14:11:10
2:-1
14:26:10
2:0
6:44:11
1:0
4:33:12
1:1
0:2:12
-1:-1
5:3:11
1:-1
1:2:11
-1:-1
3:21:10
0:-1
2:33:10
0:0
3:16:10
0:0
4:16:10
1:0
5:12:11
1:0
5:12:12
1:0
4:12:12
1:0
0:11:12
-1:0
13:20:11
2:0
4:22:12
1:0
8:14:12
2:0
4:15:12
1:0
12:9:12
2:0
6:7:12
1:-1
14:8:12
2:0
1:0:12
-1:-1
3:9:11
0:0
4:6:11
1:-1
0:17:11
-1:-1
14:32:10
2:-1
7:9:10
1:0
0:18:11
-1:-1
1:40:10
-1:-1
1:38:9
-1:0
1:33:8
-1:0
0:36:7
-1:0
1:39:6
-1:0
3:22:5
0:-1
10:9:5
2:-1
2:22:5
0:1
0:44:6
-1:0
1:35:5
-1:-1
1:44:4
-1:1
1:39:4
-1:1
1:37:4
-1:1
1:38:4
-1:1
0:44:4
-1:1
3:29:4
0:-1
5:30:4
1:0
0:8:5
-1:0
1:68:4
-1:0
1:38:3
-1:1
1:37:3
-1:1
1:40:3
-1:1
2:32:3
0:0
0:32:3
-1:1
14:29:3
2:-1
3:44:3
0:0
1:37:3
-1:1
1:31:3
-1:1
1:36:3
-1:0
2:44:2
0:1
1:37:3
-1:1
1:42:3
-1:1
0:29:3
-1:-1
8:40:2
2:-1
0:18:2
-1:1
0:68:2
-1:1
1:44:2
-1:-1
1:38:1
-1:1
1:39:1
-1:1
1:33:1
-1:1
0:30:1
-1:1
0:29:1
-1:-1
1:50:1
-1:1
2:32:1
0:1
1:36:2
-1:1
1:49:2
-1:0
1:38:1
-1:1
1:42:1
-1:1
2:28:1
0:1
0:33:2
-1:0
4:46:1
1:1
6:18:2
1:1
0:7:3
-1:1
8:8:3
2:1
0:7:5
-1:1
5:50:5
1:0
4:38:6
1:0
2:7:7
0:0
12:5:7
2:0
14:6:8
2:0
13:19:9
2:-1
14:23:9
2:1
6:16:11
1:0
12:28:12
2:1
0:29:12
-1:0
0:9:11
-1:-1
5:46:10
1:0
1:32:11
-1:0
5:18:10
1:0
7:19:11
1:1
6:7:12
1:0
11:22:12
2:0
14:3:12
2:-1
11:11:12
2:-1
14:30:12
2:0
0:21:12
-1:-1
5:47:11
1:-1
0:34:11
-1:-1
4:33:10
1:0
4:24:11
1:0
1:22:12
-1:0
7:6:11
1:-1
0:14:11
-1:0
9:10:10
2:-1
14:27:10
2:-1
0:17:10
-1:0
2:31:9
0:-1
7:54:9
1:-1
1:53:9
-1:0
14:31:8
2:0
9:36:9
2:0
7:19:10
1:1
1:25:11
-1:0
0:2:10
-1:-1
4:5:9
1:-1
0:7:9
-1:0
14:38:8
2:0
5:19:9
1:1
2:6:10
0:0
11:15:10
2:0
0:29:11
-1:0
6:1:10
1:-1
0:11:10
-1:0
3:30:9
0:1
1:32:10
-1:0
2:17:9
0:0
9:20:9
2:1
11:9:11
2:-1
7:21:11
1:0
0:28:12
-1:0
4:8:11
1:0
6:12:12
1:0
11:34:12
2:0
7:2:12
1:-1
0:11:12
-1:0
3:21:11
0:-1
0:37:11
-1:0
2:3:10
0:-1
0:12:10
-1:0
5:9:9
1:0
4:14:10
1:0
14:24:11
2:0
0:14:12
-1:0
12:28:11
2:-1
1:23:11
-1:0
0:1:10
-1:-1
2:1:9
0:-1
2:2:9
0:-1
5:5:9
1:0
6:6:10
1:0
8:2:11
2:-1
0:2:11
-1:-1
0:6:10
-1:-1
0:1:9
-1:-1
0:1:8
-1:-1
2:1:7
0:-1
8:11:7
2:-1
10:8:7
2:0
3:8:8
0:-1
2:3:8
0:-1
4:6:8
1:-1
3:2:8
0:-1
0:4:8
-1:-1
0:2:7
-1:-1
0:2:6
-1:-1
0:1:5
-1:-1
14:23:4
2:-1
0:19:4
-1:0
14:31:3
2:0
0:16:4
-1:0
0:4:3
-1:0
14:27:2
2:-1
0:19:2
-1:0
9:28:1
2:1
0:16:3
-1:1
0:1:3
-1:-1
0:1:2
-1:-1
2:18:1
0:-1
0:8:1
-1:1
0:4:1
-1:-1
4:8:1
1:-1
3:6:1
0:-1
3:54:1
0:-1
3:29:1
0:-1
2:38:1
0:1
1:15:2
-1:1
7:20:2
1:-1
6:34:2
1:0
6:32:3
1:0
12:1:4
2:0
5:6:5
1:0
5:3:6
1:0
0:7:7
-1:0
7:11:6
1:-1
14:9:6
2:1
14:9:8
2:1
14:9:10
2:1
0:13:12
-1:0
8:14:11
2:0
6:38:12
1:0
7:92:12
1:1
7:92:12
1:0
5:60:12
1:1
0:29:12
-1:0
7:16:11
1:-1
2:5:11
0:0
2:11:11
0:0
3:17:11
0:0
2:22:11
0:0
0:9:11
-1:-1
11:8:10
2:0
14:9:11
2:0
0:7:12
-1:0
3:4:11
0:0
5:10:11
1:0
5:16:12
1:0
0:15:12
-1:0
11:7:11
2:0
14:12:12
2:0
0:1:12
-1:-1
5:5:11
1:0
8:3:12
2:-1
8:5:12
2:-1
8:7:12
2:0
0:4:12
-1:0
12:9:11
2:0
14:11:12
2:0
0:2:12
-1:-1
0:14:11
-1:-1
11:30:10
2:-1
13:42:10
2:0
14:44:11
2:1
0:17:12
-1:0
4:6:11
1:-1
8:4:11
2:0
2:2:12
0:-1
0:2:12
-1:-1
1:4:11
-1:-1
2:6:10
0:-1
3:7:10
0:-1
4:6:10
1:0
0:8:11
-1:0
14:8:10
2:0
0:7:11
-1:0
6:3:10
1:-1
14:7:10
2:0
2:6:11
0:0
6:4:11
1:0
0:4:12
-1:0
14:5:11
2:-1
2:14:11
0:0
4:4:11
1:-1
8:4:11
2:0
3:6:12
0:-1
2:10:12
0:0
3:8:12
0:-1
0:12:12
-1:-1
6:24:11
1:0
0:14:12
-1:0
9:13:11
2:0
6:22:12
1:0
7:21:12
1:0
0:3:12
-1:-1
2:3:11
0:-1
1:2:11
-1:-1
7:17:10
1:-1
0:26:10
-1:1
3:5:10
0:-1
0:2:10
-1:-1
0:2:9
-1:-1
3:3:8
0:-1
2:1:8
0:-1
0:14:8
-1:-1
2:47:7
0:0
7:82:7
1:0
7:84:8
1:1
0:33:9
-1:1
6:6:9
1:0
5:2:10
1:-1
0:0:10
-1:-1
8:27:9
2:-1
11:19:9
2:0
4:15:10
1:0
5:1:11
1:-1
7:1:11
1:-1
3:6:11
0:0
6:13:11
1:-1
9:17:11
2:1
3:22:12
0:1
5:11:12
1:-1
6:1:12
1:-1
4:1:12
1:-1
3:9:12
0:0
9:16:12
2:-1
10:26:12
2:0
4:8:12
1:0
14:10:12
2:0
14:19:12
2:0
3:14:12
0:-1
12:10:12
2:0
14:9:12
2:0
2:7:12
0:0
0:2:12
-1:-1
9:7:11
2:-1
14:10:11
2:1
4:7:12
1:0
3:7:12
0:-1
10:22:12
2:0
0:24:12
-1:0
8:3:11
2:-1
10:8:11
2:0
3:6:12
0:0
3:10:12
0:0
2:3:12
0:-1
0:23:12
-1:0
10:24:11
2:1
0:25:12
-1:0
0:8:11
-1:-1
2:9:10
0:0
1:25:10
-1:0
0:8:9
-1:-1
2:5:8
0:-1
10:3:8
2:-1
0:1:8
-1:-1
4:4:7
1:-1
14:17:7
2:-1
7:16:7
1:0
3:10:8
0:0
4:15:8
1:0
6:14:9
1:0
0:9:10
-1:0
6:11:9
1:0
8:9:10
2:0
5:7:11
1:-1
1:8:11
-1:-1
0:28:10
-1:0
1:21:9
-1:-1
1:21:8
-1:0
0:25:7
-1:0
1:39:6
-1:0
1:14:5
-1:0
0:20:4
-1:0
1:18:3
-1:1
0:32:3
-1:1
1:37:3
-1:0
1:34:2
-1:1
0:29:2
-1:1
0:34:2
-1:0
1:41:1
-1:1
2:35:1
0:1
13:5:2
2:-1
14:1:2
2:-1
0:7:2
-1:0
14:5:1
2:1
6:1:3
1:-1
5:19:3
1:-1
4:14:3
1:1
5:11:4
1:1
4:13:5
1:1
5:12:6
1:1
5:12:7
1:0
4:19:8
1:-1
5:12:8
1:0
7:5:9
1:-1
2:21:9
0:-1
6:29:9
1:-1
7:22:9
1:0
5:25:10
1:0
8:23:11
2:-1
5:40:11
1:0
14:4:12
2:-1
14:12:12
2:0
14:10:12
2:-1
14:9:12
2:0
4:5:12
1:-1
14:15:12
2:0
8:7:12
2:-1
1:30:12
-1:0
1:30:11
-1:-1
1:30:10
-1:0
2:26:9
0:-1
1:32:9
-1:0
2:28:8
0:0
1:37:8
-1:0
1:32:7
-1:0
1:31:6
-1:0
1:27:5
-1:0
1:30:4
-1:0
1:30:3
-1:0
1:38:2
-1:-1
1:21:1
-1:1
1:30:1
-1:1
1:31:1
-1:1
1:29:1
-1:1
0:31:1
-1:1
2:36:1
0:-1
0:31:1
-1:1
4:34:1
1:1
4:34:2
1:1
4:30:3
1:1
4:27:4
1:1
4:20:5
1:1
4:20:6
1:-1
6:17:6
1:1
6:18:7
1:1
5:18:8
1:1
3:20:9
0:1
5:27:10
1:1
8:19:11
2:-1
6:25:11
1:0
6:20:12
1:-1
0:19:12
-1:0
1:24:11
-1:0
7:27:10
1:-1
7:20:10
1:1
0:33:11
-1:0
1:37:10
-1:0
1:34:9
-1:0
2:26:8
0:0
3:25:8
0:-1
2:30:8
0:0
1:36:8
-1:0
1:28:7
-1:0
1:30:6
-1:0
0:28:5
-1:0
0:33:4
-1:0
1:27:3
-1:1
1:28:3
-1:0
1:30:2
-1:1
1:30:2
-1:1
1:30:2
-1:1
5:70:2
1:0
3:50:3
0:1
4:45:4
1:1
4:49:5
1:1
4:48:6
1:1
4:44:7
1:1
4:31:8
1:1
4:34:9
1:1
5:32:10
1:1
4:48:11
1:-1
5:36:11
1:1
4:32:12
1:-1
5:33:12
1:1
13:50:12
2:0
1:87:12
-1:-1
2:63:11
0:0
1:74:11
-1:0
2:60:10
0:0
3:37:10
0:1
7:39:11
1:-1
1:42:11
-1:-1
1:28:10
-1:0
2:40:9
0:-1
2:34:9
0:0
2:37:9
0:0
1:18:9
-1:0
3:11:8
0:0
4:9:8
1:0
4:10:9
1:0
3:8:10
0:0
2:22:10
0:0
1:28:10
-1:-1
3:27:9
0:0
3:29:9
0:0
3:30:9
0:-1
0:16:9
-1:-1
1:69:8
-1:0
2:57:7
0:1
3:41:8
0:1
3:44:9
0:-1
4:34:9
1:0
0:26:10
-1:-1
3:10:9
0:-1
4:30:9
1:0
2:39:10
0:0
2:47:10
0:0
0:45:10
-1:0
3:32:9
0:1
3:32:10
0:0
3:29:10
0:0
0:39:10
-1:0
1:36:9
-1:0
2:26:8
0:0
3:28:8
0:0
3:25:8
0:0
0:4:8
-1:-1
2:71:7
0:1
2:56:8
0:1
2:50:9
0:1
3:48:10
0:-1
4:36:10
1:0
0:31:11
-1:-1
1:26:10
-1:0
2:30:9
0:0
0:30:9
-1:0
2:36:8
0:0
2:40:8
0:0
3:31:8
0:-1
3:27:8
0:0
3:32:8
0:0
0:37:8
-1:0
2:35:7
0:-1
2:31:7
0:0
3:30:7
0:-1
2:30:7
0:0
0:22:7
-1:-1
1:54:6
-1:-1
1:45:5
-1:1
1:26:5
-1:0
0:23:4
-1:-1
2:33:3
0:1
2:35:4
0:1
2:39:5
0:1
2:41:6
0:1
1:50:7
-1:0
8:24:6
2:-1
5:13:6
1:0
7:13:7
1:0
0:20:8
-1:0
0:2:7
-1:-1
8:8:6
2:1
13:8:8
2:0
3:3:9
0:-1
3:1:9
0:-1
13:6:9
2:0
8:3:10
2:-1
0:8:10
-1:-1
10:6:9
2:0
0:6:10
-1:0
0:11:9
-1:-1
13:13:8
2:0
0:13:9
-1:0
3:23:8
0:1
7:15:9
1:0
3:24:10
0:0
5:12:10
1:0
1:30:11
-1:-1
0:37:10
-1:0
6:55:9
1:-1
0:39:9
-1:-1
2:5:8
0:-1
11:5:8
2:0
4:6:9
1:-1
5:3:9
1:-1
7:8:9
1:0
7:6:10
1:0
7:3:11
1:-1
2:5:11
0:-1
12:7:11
2:0
2:6:12
0:0
5:37:12
1:0
7:58:12
1:0
6:23:12
1:0
14:8:12
2:0
3:11:12
0:-1
10:32:12
2:1
2:18:12
0:0
6:22:12
1:0
1:22:12
-1:0
4:19:11
1:-1
10:32:11
2:0
3:16:12
0:-1
5:6:12
1:0
5:5:12
1:0
10:5:12
2:0
14:5:12
2:0
14:5:12
2:0
14:5:12
2:0
14:5:12
2:0
14:5:12
2:0
14:5:12
2:0
14:6:12
2:0
12:17:12
2:-1
4:24:12
1:0
0:14:12
-1:0
4:1:11
1:-1
0:1:11
-1:-1
4:1:10
1:-1
14:25:10
2:-1
11:22:10
2:1
0:8:12
-1:0
0:1:11
-1:-1
4:1:10
1:-1
5:1:10
1:-1
3:25:10
0:0
9:19:10
2:0
12:14:11
2:-1
0:14:11
-1:0
7:6:10
1:0
12:5:11
2:0
14:5:12
2:0
14:5:12
2:0
3:4:12
0:-1
8:5:12
2:0
13:5:12
2:0
14:5:12
2:0
14:5:12
2:0
14:5:12
2:0
0:5:12
-1:-1
7:4:11
1:-1
8:1:11
2:-1
10:4:11
2:0
12:3:12
2:0
13:3:12
2:0
13:2:12
2:-1
14:4:12
2:0
13:6:12
2:-1
8:18:12
2:0
13:11:12
2:0
3:19:12
0:-1
5:1:12
1:-1
6:1:12
1:-1
5:1:12
1:-1
6:1:12
1:-1
7:5:12
1:-1
4:4:12
1:0
0:8:12
-1:-1
5:1:11
1:-1
2:1:11
0:-1
2:0:11
0:-1
11:7:11
2:0
2:5:12
0:-1
0:21:12
-1:-1
2:24:11
0:-1
1:8:11
-1:-1
0:11:10
-1:-1
0:20:9
-1:0
3:25:8
0:0
2:13:8
0:0
3:7:8
0:-1
5:18:8
1:0
6:16:9
1:0
2:6:10
0:-1
9:9:10
2:-1
11:2:10
2:-1
14:4:10
2:0
0:11:11
-1:-1
3:20:10
0:0
3:25:10
0:0
1:31:10
-1:0
2:33:9
0:0
1:34:9
-1:0
2:33:8
0:-1
2:33:8
0:0
3:24:8
0:0
0:3:8
-1:-1
7:22:7
1:1
7:18:8
1:1
7:18:9
1:1
7:18:10
1:1
7:18:11
1:0
0:16:12
-1:0
7:20:11
1:0
8:17:12
2:0
7:19:12
1:-1
7:18:12
1:0
7:18:12
1:0
8:17:12
2:0
4:17:12
1:-1
2:28:12
0:0
2:27:12
0:0
1:35:12
-1:0
2:28:11
0:0
2:21:11
0:0
2:33:11
0:-1
1:17:11
-1:0
6:28:10
1:-1
7:28:10
1:-1
7:18:10
1:1
7:18:11
1:0
7:18:12
1:0
7:18:12
1:0
7:31:12
1:-1
13:18:12
2:0
5:18:12
1:0
7:13:12
1:0
6:8:12
1:0
1:5:12
-1:-1
1:65:11
-1:0
2:64:10
0:1
2:47:11
0:0
0:37:11
-1:0
1:27:10
-1:0
2:31:9
0:0
3:14:9
0:0
2:16:9
0:0
2:26:9
0:-1
4:36:9
1:0
2:28:10
0:0
3:25:10
0:0
2:29:10
0:-1
0:26:10
-1:0
3:31:9
0:-1
3:61:9
0:1
5:32:10
1:0
3:34:11
0:0
3:40:11
0:0
2:39:11
0:0
3:30:11
0:-1
1:26:11
-1:-1
3:18:10
0:0
4:19:10
1:0
4:21:11
1:0
0:13:12
-1:-1
4:45:11
1:0
1:31:12
-1:0
2:38:11
0:-1
8:28:11
2:0
1:26:12
-1:-1
0:42:11
-1:0
2:30:10
0:0
3:21:10
0:0
2:25:10
0:0
3:28:10
0:0
0:25:10
-1:0
6:67:9
1:-1
8:84:9
2:0
12:77:10
2:-1
6:45:10
1:1
0:30:11
-1:-1
9:13:10
2:-1
2:6:10
0:0
9:7:10
2:0
0:12:11
-1:0
14:10:10
2:0
3:5:11
0:-1
14:7:11
2:-1
14:13:11
2:-1
13:25:11
2:0
6:52:12
1:0
0:21:12
-1:1
0:4:12
-1:-1
6:4:11
1:-1
1:1:11
-1:-1
1:11:10
-1:-1
3:26:9
0:0
3:12:9
0:0
4:11:9
1:0
2:12:10
0:0
3:13:10
0:-1
3:20:10
0:0
3:19:10
0:0
2:18:10
0:0
14:22:10
2:1
0:21:12
-1:0
12:9:11
2:-1
4:18:11
1:1
0:9:12
-1:-1
8:8:11
2:0
0:7:12
-1:0
0:2:11
-1:-1
3:5:10
0:-1
4:6:10
1:-1
0:15:10
-1:-1
14:32:9
2:-1
7:10:9
1:0
0:20:10
-1:-1
1:42:9
-1:-1
1:37:8
-1:0
1:33:7
-1:0
1:41:6
-1:0
1:37:5
-1:0
0:17:4
-1:-1
0:8:3
-1:-1
1:23:2
-1:-1
0:47:1
-1:1
1:38:1
-1:-1
1:36:1
-1:1
3:42:1
0:1
1:38:2
-1:1
1:40:2
-1:1
1:32:2
-1:1
4:35:2
1:0
0:23:3
-1:1
0:2:3
-1:0
0:68:2
-1:1
2:43:2
0:-1
0:39:2
-1:1
2:39:2
0:1
1:32:3
-1:1
0:33:3
-1:0
14:35:2
2:0
2:43:3
0:0
2:28:3
0:1
1:34:4
-1:1
1:46:4
-1:1
0:42:4
-1:0
1:42:3
-1:0
1:37:2
-1:1
0:30:2
-1:0
7:45:1
1:1
0:6:2
-1:0
1:70:1
-1:1
1:42:1
-1:1
1:39:1
-1:1
2:38:1
0:1
2:34:2
0:1
0:27:3
-1:0
14:29:2
2:0
1:48:3
-1:0
1:32:2
-1:1
2:41:2
0:1
1:48:3
-1:1
1:37:3
-1:1
1:39:3
-1:0
0:35:2
-1:1
0:32:2
-1:0
6:44:1
1:1
7:19:2
1:1
2:8:3
0:1
9:7:4
2:1
0:6:6
-1:0
5:56:5
1:-1
0:43:5
-1:0
9:3:4
2:0
6:5:5
1:0
14:3:6
2:0
13:22:7
2:0
14:21:8
2:0
14:17:9
2:1
3:12:11
0:-1
14:28:11
2:0
6:15:12
1:0
4:48:12
1:-1
0:40:12
-1:0
6:19:11
1:-1
6:21:11
1:0
6:23:12
1:1
5:7:12
1:0
6:10:12
1:-1
10:4:12
2:-1
9:12:12
2:0
14:31:12
2:0
0:24:12
-1:-1
5:43:11
1:-1
7:50:11
1:0
6:20:12
1:-1
5:24:12
1:0
10:19:12
2:0
4:8:12
1:-1
14:11:12
2:0
0:13:12
-1:0
14:31:11
2:1
0:25:12
-1:1
2:31:12
0:-1
8:53:12
2:-1
6:60:12
1:1
14:35:12
2:0
8:30:12
2:0
10:24:12
2:0
5:18:12
1:0
0:3:12
-1:-1
13:8:11
2:0
12:27:12
2:0
0:32:12
-1:0
14:7:11
2:0
11:20:12
2:0
0:30:12
-1:0
12:6:11
2:0
7:12:12
1:0
11:29:12
2:0
0:19:12
-1:1
1:16:12
-1:-1
8:17:11
2:-1
8:11:11
2:0
0:11:12
-1:0
14:35:11
2:-1
7:4:11
1:0
0:9:12
-1:0
14:28:11
2:-1
5:15:11
1:-1
14:7:11
2:0
8:20:12
2:-1
10:23:12
2:0
0:11:12
-1:0
6:12:11
1:0
2:4:12
0:-1
0:9:12
-1:0
14:27:11
2:-1
0:20:11
-1:0
4:26:10
1:-1
1:24:10
-1:0
0:1:9
-1:-1
2:1:8
0:-1
2:1:8
0:-1
5:5:8
1:0
6:6:9
1:0
8:2:10
2:-1
0:2:10
-1:-1
0:4:9
-1:-1
0:1:8
-1:-1
0:1:7
-1:-1
2:1:6
0:-1
9:12:6
2:-1
4:3:6
1:0
0:11:7
-1:0
5:5:6
1:0
2:2:7
0:-1
0:3:7
-1:-1
3:5:6
0:0
0:4:6
-1:-1
0:2:5
-1:-1
0:2:4
-1:0
0:1:3
-1:-1
14:24:2
2:-1
0:18:2
-1:1
14:29:2
2:1
0:18:4
-1:1
0:5:4
-1:0
14:29:3
2:-1
0:17:3
-1:0
0:27:2
-1:0
0:18:1
-1:1
0:1:1
-1:-1
0:1:1
-1:-1
2:20:1
0:-1
0:8:1
-1:1
0:4:1
-1:-1
4:8:1
1:-1
3:6:1
0:-1
0:51:1
-1:-1
3:30:1
0:1
2:39:2
0:1
3:24:3
0:1
6:23:4
1:-1
7:33:4
1:0
4:31:5
1:0
5:0:6
1:-1
0:5:6
-1:0
8:2:5
2:-1
0:6:5
-1:0
8:12:4
2:0
14:9:5
2:1
14:9:7
2:1
14:9:9
2:1
7:15:11
1:0
8:15:12
2:0
7:45:12
1:-1
6:95:12
1:0
7:96:12
1:1
8:39:12
2:1
0:27:12
-1:-1
8:17:11
2:-1
2:4:11
0:0
2:12:11
0:0
3:14:11
0:-1
3:24:11
0:0
0:6:11
-1:-1
11:8:10
2:0
14:9:11
2:0
0:6:12
-1:0
3:3:11
0:0
4:11:11
1:0
6:17:12
1:0
0:15:12
-1:0
11:7:11
2:0
14:11:12
2:0
0:4:12
-1:0
5:4:11
1:0
7:11:12
1:0
8:6:12
2:-1
0:3:12
-1:-1
12:8:11
2:0
14:12:12
2:0
2:3:12
0:-1
3:14:12
0:-1
12:30:12
2:-1
13:42:12
2:1
14:45:12
2:1
0:18:12
-1:0
4:4:11
1:-1
8:4:11
2:0
2:2:12
0:-1
0:2:12
-1:-1
1:4:11
-1:-1
2:4:10
0:-1
3:7:10
0:-1
0:10:10
-1:1
8:9:10
2:0
14:8:11
2:0
7:11:12
1:0
8:6:12
2:0
0:7:12
-1:0
3:3:11
0:-1
7:4:11
1:0
6:5:12
1:-1
14:12:12
2:0
1:12:12
-1:0
5:4:11
1:-1
9:4:11
2:0
6:8:12
1:-1
1:9:12
-1:0
0:8:11
-1:0
5:17:10
1:0
11:22:11
2:0
0:9:12
-1:0
7:14:11
1:0
8:21:12
2:0
5:17:12
1:0
0:2:12
-1:-1
1:2:11
-1:-1
1:3:10
-1:-1
7:19:9
1:-1
0:26:9
-1:1
3:6:9
0:-1
0:2:9
-1:-1
0:2:8
-1:-1
3:1:7
0:-1
2:1:7
0:-1
0:14:7
-1:-1
2:48:6
0:1
7:83:7
1:0
7:87:8
1:0
0:30:9
-1:1
6:6:9
1:0
5:2:10
1:-1
0:0:10
-1:-1
7:25:9
1:-1
11:26:9
2:0
5:11:10
1:0
9:2:11
2:-1
0:14:11
-1:0
11:31:10
2:-1
0:20:10
-1:0
5:5:9
1:0
8:1:10
2:-1
4:9:10
1:0
11:20:11
2:-1
10:27:11
2:0
5:5:12
1:-1
14:11:12
2:0
14:13:12
2:0
2:17:12
0:0
12:11:12
2:0
14:10:12
2:0
2:8:12
0:0
0:1:12
-1:-1
9:7:11
2:-1
14:10:11
2:1
4:7:12
1:0
7:11:12
1:-1
9:25:12
2:1
0:17:12
-1:0
9:3:11
2:-1
10:9:11
2:0
0:11:12
-1:0
3:10:11
0:0
0:3:11
-1:-1
0:18:10
-1:0
3:19:9
0:-1
3:31:9
0:0
1:15:9
-1:-1
5:8:8
1:-1
4:3:8
1:-1
2:29:8
0:0
0:3:8
-1:-1
2:4:7
0:-1
10:4:7
2:-1
0:1:7
-1:-1
4:4:6
1:-1
14:16:6
2:-1
7:17:6
1:0
3:8:7
0:0
4:24:7
1:0
6:14:8
1:0
0:9:9
-1:0
6:9:8
1:0
9:8:9
2:0
5:7:10
1:-1
1:12:10
-1:-1
1:22:9
-1:-1
1:28:8
-1:0
0:20:7
-1:0
1:25:6
-1:0
1:34:5
-1:0
1:42:4
-1:0
1:17:3
-1:1
1:18:3
-1:1
1:20:3
-1:-1
1:18:2
-1:1
1:23:2
-1:1
1:19:2
-1:0
0:22:1
-1:1
1:17:1
-1:1
1:26:1
-1:1
0:40:1
-1:1
2:39:1
0:1
11:5:2
2:-1
14:2:2
2:-1
0:5:2
-1:0
0:1:1
-1:-1
14:7:1
2:1
14:3:3
2:-1
0:14:3
-1:-1
3:17:2
0:0
4:15:2
1:1
4:11:3
1:1
4:12:4
1:1
2:13:5
0:1
4:20:6
1:0
3:8:7
0:0
7:11:7
1:0
2:21:8
0:-1
6:32:8
1:0
6:32:9
1:0
2:19:10
0:-1
1:48:10
-1:0
4:19:9
1:0
9:6:10
2:-1
14:9:10
2:0
5:5:11
1:0
14:14:12
2:0
10:8:12
2:0
14:19:12
2:0
8:4:12
2:0
11:11:12
2:0
0:33:12
-1:0
1:27:11
-1:0
0:30:10
-1:-1
1:31:9
-1:-1
1:35:8
-1:0
1:17:7
-1:0
1:37:6
-1:0
1:29:5
-1:0
1:31:4
-1:0
1:30:3
-1:1
1:37:3
-1:1
1:25:3
-1:0
1:37:2
-1:1
1:31:2
-1:1
1:33:2
-1:1
1:27:2
-1:1
2:26:2
0:1
2:28:3
0:-1
3:49:3
0:1
2:42:4
0:0
2:40:4
0:1
3:44:5
0:1
4:32:6
1:1
3:29:7
0:1
0:17:8
-1:0
5:26:7
1:0
3:16:8
0:-1
4:25:8
1:0
4:22:9
1:1
5:21:10
1:1
0:18:11
-1:0
6:35:10
1:-1
1:20:10
-1:0
6:24:9
1:1
5:24:10
1:1
5:22:11
1:0
6:22:12
1:0
7:19:12
1:0
1:36:12
-1:-1
1:33:11
-1:-1
1:27:10
-1:-1
1:25:9
-1:-1
1:30:8
-1:0
1:32:7
-1:0
1:31:6
-1:0
1:27:5
-1:0
1:28:4
-1:0
1:30:3
-1:1
1:31:3
-1:1
1:27:3
-1:0
1:27:2
-1:1
1:31:2
-1:1
1:30:2
-1:1
1:32:2
-1:1
3:71:2
0:0
2:65:2
0:1
2:64:3
0:1
6:59:4
1:1
4:47:5
1:1
4:42:6
1:0
4:34:7
1:1
4:32:8
1:1
5:33:9
1:1
4:48:10
1:-1
5:36:10
1:1
5:32:11
1:0
4:34:12
1:0
13:49:12
2:0
3:88:12
0:-1
2:62:12
0:0
1:77:12
-1:0
2:56:11
0:0
3:38:11
0:0
3:37:11
0:0
12:33:11
2:0
1:42:12
-1:0
2:36:11
0:0
3:33:11
0:0
1:30:11
-1:0
0:26:10
-1:-1
3:7:9
0:0
3:13:9
0:0
4:9:9
1:0
0:13:10
-1:-1
5:11:9
1:0
4:36:10
1:-1
2:28:10
0:0
2:31:10
0:0
2:31:10
0:0
0:18:10
-1:0
2:73:9
0:-1
2:55:9
0:0
2:56:9
0:0
3:46:9
0:-1
3:36:9
0:1
4:40:10
1:1
1:19:11
-1:-1
2:25:10
0:0
3:24:10
0:-1
2:34:10
0:0
3:33:10
0:0
3:30:10
0:-1
3:20:10
0:0
0:30:10
-1:0
0:35:9
-1:0
5:34:8
1:0
3:22:9
0:0
2:21:9
0:0
3:26:9
0:0
0:18:9
-1:-1
2:72:8
0:-1
1:54:8
-1:1
2:55:8
0:1
3:46:9
0:-1
4:37:9
1:1
4:36:10
1:1
1:24:11
-1:-1
2:25:10
0:0
2:36:10
0:0
0:44:10
-1:0
1:30:9
-1:0
3:24:8
0:0
4:28:8
1:0
4:29:9
1:0
4:31:10
1:-1
1:40:10
-1:-1
3:27:9
0:0
2:26:9
0:0
2:28:9
0:0
2:28:9
0:0
0:29:9
-1:-1
0:49:8
-1:-1
1:37:7
-1:0
2:29:6
0:0
2:32:6
0:-1
1:47:6
-1:-1
3:30:5
0:1
0:28:6
-1:0
2:30:5
0:0
1:43:5
-1:1
3:50:5
0:0
11:12:5
2:1
7:13:7
1:-1
1:15:7
-1:0
0:14:6
-1:1
8:8:6
2:1
13:8:8
2:0
3:3:9
0:-1
3:1:9
0:-1
12:6:9
2:0
5:3:10
1:-1
0:13:10
-1:0
10:6:9
2:0
0:6:10
-1:0
6:5:9
1:-1
7:11:9
1:0
14:11:10
2:0
7:19:11
1:0
6:12:12
1:-1
7:14:12
1:0
0:25:12
-1:-1
2:16:11
0:0
5:27:11
1:-1
0:24:11
-1:-1
7:58:10
1:-1
3:33:10
0:1
14:7:11
2:0
0:11:12
-1:0
3:12:11
0:0
7:9:11
1:0
8:10:12
2:0
8:10:12
2:0
0:9:12
-1:0
12:7:11
2:0
1:8:12
-1:0
5:33:11
1:1
7:61:12
1:1
5:27:12
1:1
14:8:12
2:0
4:15:12
1:-1
9:26:12
2:0
0:22:12
-1:0
4:19:11
1:0
1:36:12
-1:0
11:22:11
2:-1
7:16:11
1:0
2:18:12
0:0
6:15:12
1:0
0:7:12
-1:0
6:6:11
1:0
11:5:12
2:0
14:5:12
2:0
14:5:12
2:0
14:5:12
2:0
14:5:12
2:0
14:6:12
2:0
14:5:12
2:0
7:14:12
1:-1
14:23:12
2:1
4:23:12
1:0
0:1:12
-1:-1
0:0:11
-1:-1
4:1:10
1:-1
14:24:10
2:-1
14:25:10
2:1
4:7:12
1:-1
5:1:12
1:-1
3:24:12
0:0
0:21:12
-1:0
13:12:11
2:0
0:13:12
-1:0
7:7:11
1:0
11:4:12
2:0
14:5:12
2:0
14:5:12
2:0
14:6:12
2:0
14:5:12
2:0
3:3:12
0:-1
8:5:12
2:0
13:5:12
2:0
14:5:12
2:0
0:7:12
-1:-1
7:4:11
1:-1
8:1:11
2:-1
10:4:11
2:0
12:3:12
2:0
13:3:12
2:0
13:2:12
2:-1
14:4:12
2:0
12:3:12
2:-1
9:19:12
2:0
14:12:12
2:0
0:18:12
-1:0
1:1:11
-1:-1
3:2:10
0:-1
3:1:10
0:-1
5:1:10
1:-1
6:1:10
1:-1
8:6:10
2:-1
0:7:10
-1:0
0:5:9
-1:0
5:1:8
1:-1
0:2:8
-1:-1
13:5:7
2:-1
2:9:7
0:0
5:8:7
1:-1
0:25:7
-1:1
1:13:7
-1:-1
0:14:6
-1:-1
8:21:5
2:1
3:22:7
0:0
2:13:7
0:0
3:6:7
0:-1
5:18:7
1:1
6:16:8
1:0
2:4:9
0:-1
9:12:9
2:-1
11:2:9
2:-1
14:4:9
2:0
0:4:10
-1:-1
3:22:9
0:-1
4:16:9
1:0
2:15:10
0:0
1:34:10
-1:0
2:37:9
0:0
3:28:9
0:0
3:34:9
0:0
3:19:9
0:-1
0:8:9
-1:-1
7:22:8
1:0
7:17:9
1:1
7:18:10
1:1
7:20:11
1:0
7:18:12
1:0
0:14:12
-1:0
7:20:11
1:1
7:18:12
1:0
7:18:12
1:0
7:17:12
1:0
6:18:12
1:0
8:17:12
2:0
1:27:12
-1:-1
2:19:11
0:-1
2:27:11
0:0
2:35:11
0:0
2:42:11
0:0
2:37:11
0:0
1:32:11
-1:0
1:28:10
-1:0
7:33:9
1:-1
7:16:9
1:0
7:18:10
1:0
7:18:11
1:0
7:18:12
1:0
3:22:12
0:0
7:26:12
1:-1
7:18:12
1:0
11:9:12
2:0
0:1:12
-1:-1
0:39:11
-1:1
2:72:11
0:0
2:56:11
0:0
3:52:11
0:0
2:19:11
0:-1
2:16:11
0:0
2:12:11
0:0
4:14:11
1:-1
3:15:11
0:0
1:34:11
-1:-1
2:26:10
0:0
2:30:10
0:0
3:30:10
0:0
5:28:10
1:0
0:26:11
-1:-1
2:48:10
0:1
1:50:11
-1:0
3:37:10
0:-1
6:23:10
1:0
3:29:11
0:0
0:43:11
-1:0
4:27:10
1:-1
5:16:10
1:0
0:17:11
-1:0
3:27:10
0:0
0:24:10
-1:0
2:31:9
0:-1
3:63:9
0:1
4:50:10
1:1
5:23:11
1:-1
4:29:11
1:0
2:44:12
0:0
4:40:12
1:-1
3:26:12
0:0
3:21:12
0:0
3:25:12
0:0
3:28:12
0:0
6:44:12
1:-1
6:81:12
1:0
9:76:12
2:-1
9:62:12
2:0
2:33:12
0:-1
5:18:12
1:-1
0:8:12
-1:0
8:8:11
2:0
0:7:12
-1:0
14:12:11
2:-1
3:10:11
0:0
14:7:11
2:-1
14:19:11
2:-1
14:27:11
2:0
11:51:12
2:0
2:37:12
0:0
0:9:12
-1:0
0:2:11
-1:-1
0:1:10
-1:-1
4:13:9
1:-1
2:24:9
0:0
3:15:9
0:0
2:13:9
0:0
4:15:9
1:0
4:19:10
1:0
0:13:11
-1:0
3:16:10
0:0
3:18:10
0:0
14:19:10
2:0
0:22:11
-1:0
14:10:10
2:-1
5:19:10
1:0
0:8:11
-1:0
8:8:10
2:0
0:6:11
-1:0
1:1:10
-1:-1
3:6:9
0:-1
4:6:9
1:-1
0:16:9
-1:-1
14:32:8
2:-1
7:10:8
1:0
1:25:9
-1:-1
1:36:8
-1:0
1:35:7
-1:0
1:34:6
-1:0
1:40:5
-1:0
1:38:4
-1:1
1:18:4
-1:-1
0:8:3
-1:-1
1:24:2
-1:-1
1:46:1
-1:1
1:36:1
-1:1
1:36:1
-1:1
0:43:1
-1:1
1:41:1
-1:1
1:45:1
-1:1
0:31:1
-1:1
6:32:1
1:-1
0:22:1
-1:-1
1:68:1
-1:1
1:41:1
-1:1
1:38:1
-1:1
1:39:1
-1:1
1:30:1
-1:-1
0:33:1
-1:1
14:33:1
2:-1
3:40:1
0:1
2:34:2
0:1
1:31:3
-1:1
1:44:3
-1:1
1:42:3
-1:1
1:34:3
-1:1
1:43:3
-1:1
0:31:3
-1:0
9:39:2
2:-1
0:18:2
-1:1
1:68:2
-1:1
1:44:2
-1:1
1:37:2
-1:1
1:39:2
-1:1
1:34:2
-1:0
1:28:1
-1:1
14:31:1
2:-1
1:46:1
-1:1
1:33:1
-1:1
1:40:1
-1:1
1:48:1
-1:1
2:37:1
0:1
2:41:2
0:1
0:34:3
-1:1
0:32:3
-1:0
5:45:2
1:1
7:18:3
1:1
2:8:4
0:1
9:7:5
2:1
0:6:7
-1:0
6:48:6
1:-1
5:41:6
1:0
7:5:7
1:-1
13:6:7
2:0
6:2:8
1:-1
2:17:8
0:0
14:19:8
2:-1
0:20:8
-1:0
14:7:7
2:-1
7:26:7
1:-1
5:18:7
1:0
5:34:8
1:0
5:44:9
1:0
10:33:10
2:0
5:22:11
1:-1
4:17:11
1:0
6:12:12
1:0
4:7:12
1:-1
9:5:12
2:-1
11:11:12
2:-1
14:37:12
2:1
0:19:12
-1:-1
5:44:11
1:-1
4:58:11
1:0
3:22:12
0:-1
6:16:12
1:0
0:14:12
-1:1
14:15:12
2:-1
0:12:12
-1:0
10:9:11
2:-1
14:28:11
2:-1
0:16:11
-1:0
2:35:10
0:-1
7:45:10
1:-1
1:58:10
-1:1
14:31:10
2:0
8:38:11
2:1
8:17:12
2:0
0:23:12
-1:1
0:6:12
-1:0
7:3:11
1:-1
6:2:11
1:-1
12:27:11
2:0
0:32:12
-1:0
12:8:11
2:0
8:16:12
2:0
12:36:12
2:0
0:2:12
-1:-1
2:9:11
0:0
10:20:11
2:-1
4:26:11
1:1
4:13:12
1:-1
5:22:12
1:-1
6:15:12
1:0
0:12:12
-1:0
14:33:11
2:-1
5:11:11
1:0
2:8:12
0:0
14:19:12
2:-1
0:29:12
-1:0
5:2:11
1:-1
0:8:11
-1:0
11:24:10
2:0
0:26:11
-1:0
2:3:10
0:-1
3:13:10
0:0
7:10:10
1:0
9:17:11
2:-1
14:25:11
2:-1
0:12:11
-1:0
14:26:10
2:-1
1:24:10
-1:0
0:1:9
-1:-1
2:1:8
0:-1
2:2:8
0:-1
5:5:8
1:0
6:6:9
1:0
8:3:10
2:-1
0:2:10
-1:-1
0:4:9
-1:-1
0:1:8
-1:-1
0:1:7
-1:-1
0:1:6
-1:-1
2:1:5
0:-1
7:9:5
1:-1
1:6:5
-1:0
0:12:4
-1:0
1:6:3
-1:0
2:1:2
0:-1
0:3:2
-1:-1
0:6:1
-1:-1
0:3:1
-1:-1
0:2:1
-1:1
0:2:1
-1:-1
0:2:1
-1:1
0:1:1
-1:-1
14:24:1
2:-1
0:18:1
-1:1
8:31:1
2:1
0:16:3
-1:1
0:3:3
-1:0
7:27:2
1:-1
0:18:2
-1:0
14:27:1
2:-1
0:18:1
-1:1
2:19:1
0:-1
1:7:1
-1:1
2:7:1
0:-1
4:2:1
1:1
3:6:2
0:-1
3:54:2
0:-1
3:32:2
0:-1
2:35:2
0:1
2:21:3
0:1
8:26:4
2:-1
3:31:4
0:1
5:25:5
1:1
12:3:6
2:0
3:4:7
0:0
0:4:7
-1:0
0:6:6
-1:0
7:11:5
1:-1
14:9:5
2:1
14:9:7
2:1
14:9:9
2:1
0:9:11
-1:0
7:18:10
1:-1
6:38:10
1:-1
7:89:10
1:0
7:89:11
1:0
2:63:12
0:0
0:28:12
-1:0
6:17:11
1:-1
0:6:11
-1:0
2:13:10
0:0
1:25:10
-1:0
3:18:9
0:0
0:10:9
-1:-1
10:7:8
2:0
14:8:9
2:0
3:7:10
0:0
0:0:10
-1:-1
5:9:9
1:-1
0:13:9
-1:-1
4:19:8
1:0
0:15:9
-1:0
12:7:8
2:0
14:9:9
2:1
0:2:11
-1:-1
5:4:10
1:0
8:9:11
2:0
7:9:12
1:0
0:5:12
-1:-1
12:8:11
2:0
14:11:12
2:0
0:1:12
-1:-1
3:15:11
0:-1
14:33:11
2:-1
13:43:11
2:0
14:44:12
2:1
0:20:12
-1:0
5:5:11
1:-1
9:4:11
2:0
4:3:12
1:-1
3:2:12
0:-1
2:6:12
0:-1
11:8:12
2:-1
14:9:12
2:0
0:3:12
-1:-1
14:8:11
2:0
4:11:12
1:0
0:7:12
-1:0
0:5:11
-1:0
3:3:10
0:-1
7:4:10
1:0
6:5:11
1:-1
14:13:11
2:0
1:15:12
-1:1
5:4:12
1:-1
9:4:12
2:0
7:10:12
1:-1
0:12:12
-1:0
0:9:11
-1:0
2:16:10
0:-1
10:22:10
2:0
0:10:11
-1:0
7:13:10
1:0
7:17:11
1:0
6:19:12
1:1
0:4:12
-1:-1
2:3:11
0:-1
1:2:11
-1:-1
7:20:10
1:-1
0:23:10
-1:1
5:7:10
1:-1
0:1:10
-1:-1
0:2:9
-1:-1
3:2:8
0:-1
2:1:8
0:-1
0:14:8
-1:-1
3:48:7
0:0
7:83:7
1:0
7:81:8
1:0
0:34:9
-1:1
6:6:9
1:0
5:2:10
1:-1
0:0:10
-1:-1
9:31:9
2:-1
3:25:9
0:0
5:13:9
1:0
6:1:10
1:-1
14:8:10
2:0
3:19:11
0:-1
10:32:11
2:0
4:13:12
1:0
2:1:12
0:-1
8:1:12
2:-1
3:6:12
0:0
3:11:12
0:-1
10:22:12
2:-1
0:18:12
-1:1
5:2:12
1:-1
14:13:12
2:0
14:16:12
2:0
5:15:12
1:0
13:10:12
2:0
14:10:12
2:0
10:6:12
2:0
0:0:12
-1:-1
9:8:11
2:-1
14:10:11
2:1
0:8:12
-1:0
9:18:11
2:0
6:26:12
1:0
4:13:12
1:0
11:8:12
2:0
10:9:12
2:0
3:9:12
0:0
0:4:12
-1:-1
2:20:11
0:0
11:31:11
2:-1
0:22:11
-1:0
2:14:10
0:-1
2:5:10
0:-1
0:28:10
-1:0
0:5:9
-1:-1
2:4:8
0:-1
10:3:8
2:-1
0:1:8
-1:-1
4:4:7
1:-1
14:11:7
2:-1
6:18:7
1:0
3:9:8
0:0
5:22:8
1:0
6:21:9
1:0
0:6:10
-1:-1
6:13:9
1:0
9:10:10
2:0
0:6:11
-1:-1
5:2:10
1:-1
0:11:10
-1:-1
0:37:9
-1:0
0:24:8
-1:0
1:19:7
-1:0
1:28:6
-1:0
1:33:5
-1:0
1:19:4
-1:0
1:18:3
-1:1
0:22:3
-1:1
1:17:3
-1:-1
1:21:2
-1:0
1:25:1
-1:-1
1:14:1
-1:1
1:35:1
-1:-1
0:18:1
-1:1
1:29:1
-1:1
2:43:1
0:1
0:6:2
-1:-1
14:2:1
2:-1
0:3:1
-1:-1
14:2:1
2:1
14:2:3
2:0
5:17:4
1:-1
4:14:4
1:1
4:11:5
1:1
3:9:6
0:0
3:22:6
0:0
6:14:6
1:1
0:9:7
-1:1
0:8:7
-1:-1
7:1:6
1:-1
2:23:6
0:-1
4:23:6
1:0
7:29:7
1:0
2:20:8
0:0
7:33:8
1:0
0:28:9
-1:0
8:4:8
2:0
14:11:9
2:1
0:6:11
-1:0
14:10:10
2:0
8:2:11
2:-1
5:12:11
1:0
8:7:12
2:0
6:13:12
1:0
0:31:12
-1:0
1:32:11
-1:-1
1:29:10
-1:-1
1:37:9
-1:0
2:33:8
0:0
1:24:8
-1:0
1:28:7
-1:0
1:30:6
-1:0
2:26:5
0:-1
1:31:5
-1:0
1:33:4
-1:0
0:25:3
-1:0
1:32:2
-1:1
1:29:2
-1:1
1:27:2
-1:1
1:27:2
-1:1
2:32:2
0:1
1:30:3
-1:-1
0:21:2
-1:-1
2:37:1
0:-1
3:22:1
0:1
4:29:2
1:1
4:28:3
1:1
3:31:4
0:1
4:29:5
1:1
0:16:6
-1:0
4:27:5
1:0
5:24:6
1:1
4:17:7
1:1
4:14:8
1:0
5:20:9
1:1
0:20:10
-1:0
8:22:9
2:-1
1:23:9
-1:1
5:23:9
1:1
7:19:10
1:1
7:21:11
1:0
7:18:12
1:0
7:18:12
1:0
1:35:12
-1:-1
1:39:11
-1:-1
1:27:10
-1:-1
1:27:9
-1:-1
1:37:8
-1:0
1:30:7
-1:0
1:30:6
-1:0
1:30:5
-1:0
1:28:4
-1:0
1:21:3
-1:0
1:29:2
-1:1
1:25:2
-1:1
2:32:2
0:1
1:29:3
-1:1
1:28:3
-1:1
2:23:3
0:0
2:47:3
0:-1
4:53:3
1:1
2:48:4
0:1
2:44:5
0:1
3:43:6
0:1
5:50:7
1:0
5:33:8
1:1
5:33:9
1:1
5:36:10
1:1
5:47:11
1:-1
5:31:11
1:1
4:33:12
1:0
0:35:12
-1:0
14:53:11
2:0
1:89:12
-1:-1
1:67:11
-1:0
0:71:10
-1:0
2:64:9
0:0
2:37:9
0:1
3:36:10
0:0
14:32:10
2:0
2:38:11
0:-1
1:35:11
-1:0
0:44:10
-1:0
2:40:9
0:1
1:15:10
-1:-1
3:14:9
0:0
3:12:9
0:0
4:11:9
1:0
5:7:10
1:-1
0:8:10
-1:0
3:42:9
0:-1
2:24:9
0:-1
3:29:9
0:0
6:34:9
1:-1
0:19:9
-1:-1
2:80:8
0:1
1:60:9
-1:0
2:50:8
0:1
3:48:9
0:-1
2:37:9
0:1
4:29:10
1:0
0:23:11
-1:-1
3:26:10
0:0
1:21:10
-1:0
3:25:9
0:0
1:32:9
-1:0
3:33:8
0:0
3:28:8
0:0
3:30:8
0:0
4:29:8
1:0
4:44:9
1:-1
2:30:9
0:0
4:28:9
1:0
3:23:10
0:0
3:26:10
0:0
1:30:10
-1:-1
2:58:9
0:-1
1:62:9
-1:1
1:63:9
-1:0
3:42:8
0:-1
3:39:8
0:1
0:41:9
-1:1
1:31:9
-1:-1
2:20:8
0:-1
2:34:8
0:0
2:40:8
0:0
3:33:8
0:0
5:23:8
1:1
3:30:9
0:0
0:27:9
-1:0
4:46:8
1:0
3:29:9
0:0
3:27:9
0:0
3:27:9
0:0
7:23:9
1:-1
0:43:9
-1:0
1:40:8
-1:-1
2:42:7
0:0
2:29:7
0:0
1:41:7
-1:0
1:51:6
-1:1
1:54:6
-1:0
1:45:5
-1:0
0:38:4
-1:1
2:40:4
0:0
0:10:4
-1:1
5:14:4
1:1
6:15:5
1:1
0:15:6
-1:0
8:8:5
2:1
13:8:7
2:1
3:3:9
0:-1
3:1:9
0:-1
14:8:9
2:0
8:4:10
2:-1
0:10:10
-1:0
10:6:9
2:0
2:7:10
0:0
2:5:10
0:-1
7:7:10
1:-1
14:12:10
2:0
7:25:11
1:0
6:8:12
1:-1
6:14:12
1:0
0:23:12
-1:-1
0:19:11
-1:0
4:23:10
1:-1
4:28:10
1:0
6:61:11
1:-1
4:34:11
1:1
2:9:12
0:0
0:7:12
-1:-1
3:8:11
0:0
6:6:11
1:0
7:4:12
1:-1
7:14:12
1:0
0:13:12
-1:1
0:1:12
-1:-1
11:7:11
2:0
0:16:12
-1:-1
7:54:11
1:1
0:47:12
-1:1
5:1:12
1:-1
1:8:12
-1:0
11:19:11
2:-1
0:24:11
-1:0
6:18:10
1:1
9:25:11
2:1
0:20:12
-1:0
11:21:11
2:-1
10:22:11
2:0
3:18:12
0:0
4:6:12
1:0
5:5:12
1:-1
9:5:12
2:0
2:5:12
0:-1
7:5:12
1:0
12:5:12
2:0
14:5:12
2:0
14:5:12
2:0
14:5:12
2:0
14:5:12
2:0
9:15:12
2:-1
14:28:12
2:1
4:21:12
1:-1
0:1:12
-1:-1
4:1:11
1:-1
14:21:11
2:-1
11:22:11
2:0
Heartbeat CPU 0 instructions: 10000002 cycles: 7697256 heartbeat IPC: 1.29916 cumulative IPC: 1.24074 (Simulation time: 0 hr 0 min 28 sec) 
4:11:12
1:0
5:1:12
1:-1
3:24:12
0:0
8:19:12
2:0
10:11:12
2:-1
0:14:12
-1:0
7:6:11
1:0
11:4:12
2:0
14:5:12
2:0
14:5:12
2:0
14:6:12
2:0
14:4:12
2:0
14:5:12
2:0
14:5:12
2:0
3:4:12
0:-1
8:5:12
2:0
3:7:12
0:-1
7:2:12
1:-1
8:1:12
2:-1
12:4:12
2:0
12:3:12
2:0
13:3:12
2:0
13:2:12
2:-1
13:5:12
2:0
12:3:12
2:-1
11:22:12
2:0
14:14:12
2:0
1:17:12
-1:-1
1:1:11
-1:-1
2:1:10
0:-1
2:1:10
0:-1
5:1:10
1:-1
6:2:10
1:-1
8:2:10
2:-1
0:5:10
-1:0
0:6:9
-1:-1
5:1:8
1:-1
2:1:8
0:-1
7:1:8
1:-1
5:4:8
1:0
2:6:9
0:-1
8:17:9
2:-1
2:25:9
0:-1
0:7:9
-1:-1
6:11:8
1:-1
5:14:8
1:-1
8:18:8
2:0
7:23:9
1:1
0:4:10
-1:-1
5:19:9
1:1
4:20:10
1:0
2:6:11
0:-1
9:6:11
2:-1
11:2:11
2:-1
14:4:11
2:0
0:8:12
-1:-1
3:19:11
0:-1
1:13:11
-1:0
3:25:10
0:0
2:28:10
0:0
2:25:10
0:0
2:23:10
0:0
3:24:10
0:0
2:15:10
0:0
0:11:10
-1:-1
7:20:9
1:1
12:18:10
2:1
7:18:12
1:0
7:18:12
1:0
7:18:12
1:0
8:17:12
2:0
0:1:12
-1:-1
7:20:11
1:0
7:18:12
1:0
7:18:12
1:0
7:18:12
1:0
7:18:12
1:0
7:17:12
1:0
1:17:12
-1:-1
3:17:11
0:0
2:27:11
0:0
1:35:11
-1:0
1:38:10
-1:0
2:36:9
0:0
2:36:9
0:0
2:17:9
0:0
5:21:9
1:-1
11:26:9
2:1
3:17:11
0:0
8:16:11
2:0
6:16:12
1:0
7:18:12
1:0
6:29:12
1:-1
3:10:12
0:-1
7:18:12
1:0
11:17:12
2:0
0:5:12
-1:0
0:33:11
-1:1
2:76:11
0:0
2:59:11
0:0
12:49:11
2:0
2:20:12
0:-1
2:26:12
0:0
1:13:12
-1:0
2:25:11
0:0
2:27:11
0:0
3:31:11
0:0
2:26:11
0:0
3:26:11
0:0
3:31:11
0:0
0:32:11
-1:0
3:44:10
0:-1
2:61:10
0:-1
4:36:10
1:1
3:28:11
0:0
3:45:11
0:0
3:45:11
0:0
3:49:11
0:0
4:18:11
1:0
4:16:12
1:0
4:18:12
1:0
3:20:12
0:0
0:20:12
-1:-1
5:47:11
1:0
5:28:12
1:0
1:34:12
-1:-1
4:35:11
1:0
4:32:12
1:0
0:41:12
-1:0
3:34:11
0:0
3:22:11
0:-1
4:18:11
1:-1
3:23:11
0:0
0:19:11
-1:-1
7:70:10
1:-1
7:78:10
1:1
11:75:11
2:-1
6:51:11
1:0
0:30:12
-1:-1
9:13:11
2:-1
3:7:11
0:0
10:7:11
2:0
3:12:12
0:0
14:12:12
2:0
3:4:12
0:-1
12:3:12
2:-1
14:13:12
2:-1
14:47:12
2:0
9:48:12
2:1
0:28:12
-1:0
0:1:11
-1:-1
6:4:10
1:-1
1:1:10
-1:-1
1:22:9
-1:-1
3:32:8
0:0
3:16:8
0:0
3:13:8
0:0
4:17:8
1:0
2:12:9
0:0
4:12:9
1:0
3:18:10
0:0
13:18:10
2:-1
14:20:10
2:0
11:13:11
2:-1
0:7:11
-1:-1
9:11:10
2:-1
3:7:10
0:0
11:8:10
2:0
1:3:11
-1:0
3:9:10
0:0
3:7:10
0:-1
0:15:10
-1:-1
14:32:9
2:-1
7:9:9
1:0
0:27:10
-1:-1
1:39:9
-1:-1
1:35:8
-1:0
1:33:7
-1:0
1:37:6
-1:0
1:42:5
-1:1
2:21:5
0:-1
0:8:5
-1:-1
1:25:4
-1:-1
1:38:3
-1:1
1:44:3
-1:1
1:36:3
-1:1
1:42:3
-1:1
0:40:3
-1:1
1:41:3
-1:0
0:36:2
-1:1
5:35:2
1:-1
0:21:2
-1:0
0:2:1
-1:1
0:65:1
-1:1
1:38:1
-1:1
1:39:1
-1:1
1:42:1
-1:1
1:32:1
-1:1
0:31:1
-1:1
14:30:1
2:1
2:44:3
0:0
2:34:3
0:1
2:38:4
0:1
1:44:5
-1:0
2:42:4
0:1
1:35:5
-1:0
2:41:4
0:1
0:37:5
-1:-1
5:42:4
1:0
0:6:5
-1:-1
0:70:4
-1:0
1:43:3
-1:-1
1:37:2
-1:1
2:39:2
0:1
1:33:3
-1:1
0:29:3
-1:0
14:32:2
2:0
1:44:3
-1:0
1:34:2
-1:-1
2:37:1
0:1
1:47:2
-1:1
1:39:2
-1:1
1:40:2
-1:1
2:32:2
0:1
0:29:3
-1:0
8:45:2
2:1
8:16:4
2:0
3:8:5
0:0
10:7:5
2:1
0:12:7
-1:0
4:35:6
1:-1
5:35:6
1:-1
7:6:6
1:-1
13:6:6
2:0
2:5:7
0:0
5:11:7
1:0
14:21:8
2:0
0:22:9
-1:0
14:8:8
2:-1
7:26:8
1:-1
5:20:8
1:0
5:33:9
1:-1
4:34:9
1:0
5:25:10
1:-1
4:30:10
1:-1
6:32:10
1:1
1:11:11
-1:0
11:10:10
2:-1
12:11:10
2:-1
14:31:10
2:1
0:22:12
-1:-1
5:48:11
1:-1
2:39:11
0:0
6:14:11
1:-1
2:10:11
0:-1
13:11:11
2:0
12:18:12
2:0
14:4:12
2:-1
14:13:12
2:0
14:24:12
2:0
0:27:12
-1:0
0:33:11
-1:-1
7:50:10
1:-1
2:56:10
0:1
14:33:11
2:0
9:35:12
2:0
11:22:12
2:0
0:20:12
-1:1
0:6:12
-1:0
10:5:11
2:-1
0:16:11
-1:0
14:34:10
2:-1
2:13:10
0:0
12:7:10
2:0
9:15:11
2:-1
0:28:11
-1:0
8:1:10
2:-1
2:7:10
0:0
11:33:10
2:-1
0:27:10
-1:1
5:11:10
1:0
5:20:11
1:-1
8:18:11
2:0
0:11:12
-1:0
14:34:11
2:-1
9:8:11
2:0
0:9:12
-1:0
4:36:11
1:0
7:8:12
1:0
0:9:12
-1:0
9:19:11
2:-1
11:25:11
2:0
0:9:12
-1:0
0:8:11
-1:-1
8:11:10
2:0
0:5:11
-1:0
0:22:10
-1:-1
0:28:9
-1:1
0:1:9
-1:-1
13:24:8
2:-1
1:24:8
-1:0
0:1:7
-1:-1
2:1:6
0:-1
2:2:6
0:-1
5:5:6
1:0
6:4:7
1:0
8:4:8
2:0
0:2:9
-1:-1
2:3:8
0:-1
6:5:8
1:-1
0:5:8
-1:0
0:5:7
-1:-1
1:3:6
-1:-1
2:1:5
0:-1
2:3:5
0:-1
3:1:5
0:-1
0:3:5
-1:-1
0:1:4
-1:-1
0:2:3
-1:0
0:1:2
-1:-1
13:22:1
2:-1
0:18:1
-1:-1
0:31:1
-1:1
0:16:1
-1:1
0:3:1
-1:1
0:27:1
-1:-1
0:18:1
-1:1
14:28:1
2:1
0:18:3
-1:1
0:1:3
-1:-1
0:1:2
-1:-1
2:21:1
0:-1
1:9:1
-1:1
0:3:1
-1:-1
4:7:1
1:1
3:6:2
0:-1
3:52:2
0:-1
3:28:2
0:0
2:39:2
0:0
3:17:2
0:1
7:20:3
1:0
7:33:4
1:0
3:36:5
0:0
0:3:5
-1:0
0:3:4
-1:0
9:1:3
2:-1
0:2:3
-1:0
4:9:2
1:-1
13:9:2
2:1
14:9:4
2:1
14:9:6
2:1
14:9:8
2:1
14:9:10
2:1
7:37:12
1:0
7:70:12
1:0
5:107:12
1:1
0:86:12
-1:1
0:16:12
-1:-1
5:24:11
1:-1
0:7:11
-1:0
4:12:10
1:0
4:26:11
1:0
4:18:12
1:0
0:18:12
-1:0
10:7:11
2:0
14:9:12
2:0
0:7:12
-1:0
3:6:11
0:0
6:10:11
1:0
4:8:12
1:0
5:14:12
1:0
0:8:12
-1:0
12:9:11
2:0
14:12:12
2:0
0:1:12
-1:-1
5:4:11
1:0
8:9:12
2:0
6:12:12
1:0
0:7:12
-1:0
11:7:11
2:0
14:11:12
2:0
0:3:12
-1:-1
0:10:11
-1:-1
14:35:10
2:-1
14:44:10
2:0
14:43:11
2:0
0:21:12
-1:0
5:5:11
1:-1
9:4:11
2:0
3:2:12
0:-1
0:1:12
-1:-1
1:4:11
-1:-1
2:4:10
0:-1
11:7:10
2:-1
14:7:10
2:0
9:8:11
2:0
11:1:12
2:-1
14:6:12
2:0
13:1:12
2:-1
4:8:12
1:0
0:9:12
-1:0
5:4:11
1:-1
9:4:11
2:0
14:6:12
2:-1
0:14:12
-1:1
4:6:12
1:-1
8:4:12
2:0
2:4:12
0:-1
0:11:12
-1:0
0:10:11
-1:-1
0:10:10
-1:-1
5:23:9
1:0
3:15:10
0:1
0:0:11
-1:-1
8:12:10
2:0
6:19:11
1:0
6:18:12
1:0
0:2:12
-1:-1
2:3:11
0:-1
1:2:11
-1:-1
6:23:10
1:-1
6:20:10
1:1
5:6:11
1:-1
0:1:11
-1:-1
0:2:10
-1:-1
3:2:9
0:-1
2:2:9
0:-1
0:14:9
-1:-1
3:48:8
0:0
7:82:8
1:0
3:85:9
0:0
0:27:9
-1:0
4:2:8
1:-1
5:1:8
1:-1
0:1:8
-1:-1
7:25:7
1:-1
10:20:7
2:0
0:18:8
-1:0
5:2:7
1:-1
5:1:7
1:-1
14:6:7
2:0
4:16:8
1:-1
11:28:8
2:0
5:15:9
1:1
9:2:10
2:-1
0:9:10
-1:0
10:13:9
2:-1
10:23:9
2:0
0:17:10
-1:0
2:3:9
0:-1
14:14:9
2:0
14:16:10
2:0
8:12:11
2:-1
13:10:11
2:1
14:9:12
2:0
0:4:12
-1:-1
9:8:11
2:-1
14:10:11
2:1
0:8:12
-1:0
10:15:11
2:-1
11:26:11
2:1
0:16:12
-1:0
10:4:11
2:-1
10:8:11
2:0
0:11:12
-1:0
3:4:11
0:-1
0:5:11
-1:-1
2:18:10
0:0
11:19:10
2:-1
11:14:10
2:0
0:24:11
-1:1
0:7:11
-1:0
0:8:10
-1:-1
4:19:9
1:-1
0:3:9
-1:-1
0:3:8
-1:-1
10:2:7
2:-1
0:2:7
-1:-1
4:4:6
1:0
14:13:7
2:-1
7:15:7
1:-1
3:6:7
0:0
4:20:7
1:0
6:14:8
1:0
0:10:9
-1:0
5:6:8
1:0
6:8:9
1:0
2:7:10
0:0
5:3:10
1:-1
1:17:10
-1:0
1:26:9
-1:0
1:37:8
-1:0
1:37:7
-1:0
1:34:6
-1:0
1:20:5
-1:0
1:26:4
-1:0
0:27:3
-1:1
1:19:3
-1:0
1:19:2
-1:0
1:26:1
-1:1
1:17:1
-1:1
1:26:1
-1:1
1:15:1
-1:-1
1:29:1
-1:-1
1:31:1
-1:1
5:23:1
1:-1
13:12:1
2:1
12:1:3
2:-1
0:2:3
-1:-1
12:3:2
2:1
14:3:4
2:-1
0:7:4
-1:-1
4:16:3
1:0
5:15:4
1:1
4:14:5
1:1
5:14:6
1:1
5:10:7
1:0
5:20:8
1:-1
5:9:8
1:0
0:6:9
-1:0
7:1:8
1:-1
0:17:8
-1:-1
6:31:7
1:-1
7:27:7
1:0
4:25:8
1:0
7:28:9
1:0
5:28:10
1:0
8:7:11
2:0
5:9:12
1:0
11:12:12
2:0
7:10:12
1:0
14:12:12
2:0
2:9:12
0:0
14:9:12
2:0
4:8:12
1:0
2:36:12
0:-1
2:29:12
0:-1
1:30:12
-1:-1
1:26:11
-1:0
1:30:10
-1:0
2:37:9
0:0
1:30:9
-1:-1
1:31:8
-1:0
2:31:7
0:0
1:31:7
-1:0
1:26:6
-1:0
1:30:5
-1:0
1:33:4
-1:0
1:26:3
-1:1
1:31:3
-1:1
1:30:3
-1:1
1:34:3
-1:1
2:20:3
0:0
1:51:3
-1:-1
1:23:2
-1:0
3:34:1
0:1
4:25:2
1:1
3:33:3
0:1
4:22:4
1:1
0:25:5
-1:1
4:25:5
1:-1
2:22:5
0:1
7:19:6
1:1
4:23:7
1:0
6:14:8
1:0
5:13:9
1:0
0:12:10
-1:0
1:21:9
-1:-1
2:22:8
0:0
7:20:8
1:1
7:20:9
1:1
6:21:10
1:0
7:20:11
1:1
7:18:12
1:0
0:34:12
-1:-1
1:30:11
-1:0
3:35:10
0:0
3:32:10
0:0
1:32:10
-1:0
1:29:9
-1:-1
1:29:8
-1:0
Finished CPU 0 instructions: 10000001 cycles: 8062059 cumulative IPC: 1.24038 (Simulation time: 0 hr 0 min 31 sec) 

CPU 0 Branch Prediction Accuracy: 97.0058% MPKI: 3.1961 Average ROB Occupancy at Mispredict: 181.999

ChampSim completed all CPUs

Region of Interest Statistics

CPU 0 cumulative IPC: 1.24038 instructions: 10000001 cycles: 8062059
L1D TOTAL     ACCESS:    3204719  HIT:    2986971  MISS:     217748
L1D LOAD      ACCESS:    1455632  HIT:    1402866  MISS:      52766
L1D RFO       ACCESS:     621316  HIT:     566517  MISS:      54799
L1D PREFETCH  ACCESS:    1127771  HIT:    1017588  MISS:     110183
L1D WRITEBACK ACCESS:          0  HIT:          0  MISS:          0
L1D PREFETCH  REQUESTED:    1523241  ISSUED:    1424684  USEFUL:     112773  USELESS:      11965
L1D AVERAGE MISS LATENCY: 731364 cycles
L1I TOTAL     ACCESS:    1978902  HIT:    1967087  MISS:      11815
L1I LOAD      ACCESS:    1978902  HIT:    1967087  MISS:      11815
L1I RFO       ACCESS:          0  HIT:          0  MISS:          0
L1I PREFETCH  ACCESS:          0  HIT:          0  MISS:          0
L1I WRITEBACK ACCESS:          0  HIT:          0  MISS:          0
L1I PREFETCH  REQUESTED:          0  ISSUED:          0  USEFUL:          0  USELESS:          0
L1I AVERAGE MISS LATENCY: 33.391 cycles
L2C TOTAL     ACCESS:     452017  HIT:     343489  MISS:     108528
L2C LOAD      ACCESS:      30180  HIT:      15019  MISS:      15161
L2C RFO       ACCESS:      54761  HIT:      34926  MISS:      19835
L2C PREFETCH  ACCESS:     286357  HIT:     212829  MISS:      73528
L2C WRITEBACK ACCESS:      80719  HIT:      80715  MISS:          4
L2C PREFETCH  REQUESTED:     217873  ISSUED:     215035  USEFUL:       9253  USELESS:      69095
L2C AVERAGE MISS LATENCY: 71.7308 cycles
LLC TOTAL     ACCESS:     143660  HIT:     111118  MISS:      32542
LLC LOAD      ACCESS:      14566  HIT:      13279  MISS:       1287
LLC RFO       ACCESS:      19828  HIT:      17624  MISS:       2204
LLC PREFETCH  ACCESS:      74130  HIT:      45154  MISS:      28976
LLC WRITEBACK ACCESS:      35136  HIT:      35061  MISS:         75
LLC PREFETCH  REQUESTED:          0  ISSUED:          0  USEFUL:       1577  USELESS:      11085
LLC AVERAGE MISS LATENCY: 138.002 cycles
Major fault: 0 Minor fault: 1081
CPU 0 L2C next line prefetcher final stats

DRAM Statistics
 CHANNEL 0
 RQ ROW_BUFFER_HIT:      17862  ROW_BUFFER_MISS:      14605
 DBUS_CONGESTED:      11861
 WQ ROW_BUFFER_HIT:       1139  ROW_BUFFER_MISS:       2310  FULL:          0

 AVG_CONGESTED_CYCLE: 6
