
*** ChampSim Multicore Out-of-Order Simulator ***

Warmup Instructions: 1000000
Simulation Instructions: 10000000
Number of CPUs: 1
LLC sets: 2048
LLC ways: 16
Off-chip DRAM Size: 4096 MB Channels: 1 Width: 64-bit Data Rate: 3200 MT/s

CPU 0 runs /home/light/7th-Sem/cs622/project/ChampSim/dpc3_traces/638.imagick_s-10316B.champsimtrace.xz
8:15:4
2:-1
7:13:4
1:0
7:12:5
1:-1
7:18:5
1:1
7:18:6
1:1
7:17:7
1:1
6:21:8
1:1
7:13:9
1:-1
6:21:9
1:1
4:22:10
1:1
0:11:11
-1:1
6:14:11
1:1
3:14:12
0:-1
3:14:12
0:1
0:12:12
-1:1
0:13:12
-1:1
2:13:12
0:1
7:26:12
1:1
8:23:12
2:1
7:24:12
1:1
7:13:12
1:0
3:20:12
0:0
7:25:12
1:1
8:25:12
2:1
7:9:12
1:0
7:27:12
1:1
3:11:12
0:0
6:24:12
1:1
0:24:12
-1:1
7:14:12
1:1
7:25:12
1:1
7:23:12
1:0
2:11:12
0:-1
7:12:12
1:-1
7:26:12
1:1
7:10:12
1:0
5:20:12
1:0
7:25:12
1:1
8:25:12
2:1
8:13:12
2:0
7:13:12
1:0
6:12:12
1:0
5:13:12
1:0
3:12:12
0:0
3:13:12
0:1
6:13:12
1:1
0:16:12
-1:0
7:14:11
1:1
7:13:12
1:-1
7:23:12
1:1
7:12:12
1:-1
7:17:12
1:-1
7:12:12
1:-1
7:25:12
1:1
7:25:12
1:1
7:25:12
1:1
7:13:12
1:0
7:24:12
1:1
7:24:12
1:1
7:26:12
1:1
7:9:12
1:-1
5:14:12
1:-1
6:13:12
1:0
6:22:12
1:1
6:25:12
1:1
0:24:12
-1:1
0:13:12
-1:1
7:13:12
1:1
7:26:12
1:1
7:24:12
1:1
3:22:12
0:0
7:23:12
1:1
7:25:12
1:1
8:12:12
2:0
8:24:12
2:1
4:12:12
1:0
3:24:12
0:1
7:12:12
1:0
5:25:12
1:1
6:13:12
1:0
1:20:12
-1:0
7:19:11
1:0
7:25:12
1:1
7:24:12
1:1
7:26:12
1:1
7:22:12
1:1
6:15:12
1:-1
7:22:12
1:1
6:25:12
1:1
6:13:12
1:0
6:25:12
1:1
7:12:12
1:-1
4:27:12
1:1
7:11:12
1:1
7:26:12
1:1
1:13:12
-1:-1
7:23:11
1:1
7:25:12
1:1
7:23:12
1:1
7:25:12
1:1
2:22:12
0:0
8:23:12
2:1
7:24:12
1:1
8:26:12
2:1
7:12:12
1:0
2:21:12
0:0
6:25:12
1:1
3:25:12
0:1
2:12:12
0:1
0:11:12
-1:1
3:14:12
0:1
7:24:12
1:1
4:24:12
1:1
7:12:12
1:-1
7:25:12
1:1
4:19:12
1:0
7:25:12
1:1
7:25:12
1:1
8:28:12
2:1
7:26:12
1:0
6:28:12
1:0
7:26:12
1:0
3:27:12
0:1
6:29:12
1:0
0:26:12
-1:1
5:28:12
1:1
7:27:12
1:1
7:29:12
1:1
7:27:12
1:1
7:29:12
1:1
6:27:12
1:0
7:28:12
1:1
7:28:12
1:1
7:27:12
1:1
7:26:12
1:0
5:28:12
1:0
7:26:12
1:0
2:28:12
0:1
7:26:12
1:1
7:28:12
1:-1
6:28:12
1:0
7:28:12
1:1
7:27:12
1:1
8:27:12
2:0
8:27:12
2:0
5:26:12
1:0
6:28:12
1:1
7:26:12
1:0
3:27:12
0:1
0:25:12
-1:1
4:28:12
1:1
7:28:12
1:1
7:27:12
1:1
7:29:12
1:1
7:27:12
1:1
7:28:12
1:0
8:27:12
2:0
6:26:12
1:0
6:27:12
1:0
4:27:12
1:1
3:26:12
0:0
0:26:12
-1:1
7:28:12
1:1
7:28:12
1:-1
7:28:12
1:1
4:28:12
1:-1
7:27:12
1:1
7:27:12
1:0
3:27:12
0:1
7:26:12
1:0
6:28:12
1:0
7:26:12
1:0
3:28:12
0:1
7:25:12
1:1
7:27:12
1:1
2:28:12
0:0
7:28:12
1:1
7:26:12
1:1
7:27:12
1:0
8:29:12
2:0
3:28:12
0:0
8:28:12
2:1
7:26:12
1:0
5:27:12
1:1
6:29:12
1:0
3:27:12
0:0
7:28:12
1:1
1:27:12
-1:1
7:27:12
1:1
7:28:12
1:-1
4:29:12
1:0
7:27:12
1:1
7:28:12
1:1
7:28:12
1:1
7:27:12
1:1
8:27:12
2:0
3:27:12
0:0
5:26:12
1:0
4:28:12
1:0
7:26:12
1:1
0:26:12
-1:0
7:44:11
1:-1
7:28:11
1:1
8:28:12
2:1
7:28:12
1:1
7:27:12
1:1
7:29:12
1:0
7:26:12
1:1
8:27:12
2:1
6:27:12
1:0
0:28:12
-1:1
6:28:12
1:-1
3:27:12
0:1
0:24:12
-1:1
8:28:12
2:1
1:30:12
-1:1
7:27:12
1:1
7:27:12
1:1
8:29:12
2:-1
7:28:12
1:1
2:28:12
0:0
7:28:12
1:1
7:27:12
1:1
8:28:12
2:1
7:26:12
1:0
1:26:12
-1:0
4:28:11
1:1
6:28:12
1:1
0:26:12
-1:1
8:27:12
2:1
2:29:12
0:0
7:27:12
1:1
7:29:12
1:1
7:27:12
1:1
7:28:12
1:1
5:27:12
1:0
8:27:12
2:0
6:29:12
1:0
6:26:12
1:1
7:27:12
1:1
2:27:12
0:0
0:25:12
-1:1
7:28:12
1:1
7:28:12
1:1
8:28:12
2:1
7:29:12
1:0
7:29:12
1:-1
7:28:12
1:1
8:27:12
2:1
6:27:12
1:1
4:26:12
1:0
7:27:12
1:1
6:27:12
1:0
7:28:12
1:1
6:26:12
1:1
0:26:12
-1:0
7:27:11
1:1
8:28:12
2:-1
7:29:12
1:1
7:27:12
1:1
4:28:12
1:0
8:28:12
2:1
7:27:12
1:1
7:29:12
1:0
6:28:12
1:1
5:27:12
1:0
6:27:12
1:1
4:27:12
1:1
3:27:12
0:0
0:25:12
-1:1
4:28:12
1:1
7:28:12
1:1
7:28:12
1:1
7:28:12
1:1
7:27:12
1:1
5:29:12
1:0
7:27:12
1:1
6:28:12
1:1
6:28:12
1:1
6:27:12
1:1
5:27:12
1:0
6:26:12
1:1
0:25:12
-1:1
7:28:12
1:1
7:30:12
1:1
6:28:12
1:-1
7:28:12
1:1
8:28:12
2:1
8:27:12
2:1
8:28:12
2:1
7:27:12
1:0
7:26:12
1:0
7:28:12
1:1
7:26:12
1:0
4:27:12
1:1
5:27:12
1:1
0:25:12
-1:1
7:28:12
1:1
7:28:12
1:1
7:28:12
1:1
6:27:12
1:0
7:29:12
1:1
8:26:12
2:1
8:27:12
2:1
8:27:12
2:0
6:28:12
1:0
6:28:12
1:1
6:26:12
1:1
2:25:12
0:1
0:28:12
-1:1
6:29:12
1:1
7:27:12
1:1
7:27:12
1:1
8:29:12
2:-1
7:28:12
1:1
7:28:12
1:0
7:28:12
1:1
7:27:12
1:1
8:28:12
2:1
7:26:12
1:0
3:39:12
0:0
2:27:12
0:1
7:25:12
1:1
7:28:12
1:1
7:28:12
1:-1
7:27:12
1:1
7:29:12
1:0
5:27:12
1:1
8:28:12
2:0
7:26:12
1:0
1:28:12
-1:0
6:28:11
1:1
7:28:12
1:0

Warmup complete CPU 0 instructions: 1000002 cycles: 341972 (Simulation time: 0 hr 0 min 1 sec) 

7:23:12
1:1
7:22:12
1:1
7:24:12
1:0
5:20:12
1:0
7:20:12
1:0
7:24:12
1:1
7:23:12
1:1
6:22:12
1:0
6:22:12
1:0
8:22:12
2:0
7:22:12
1:-1
7:23:12
1:1
3:24:12
0:0
7:23:12
1:1
8:21:12
2:0
3:23:12
0:0
7:21:12
1:0
7:24:12
1:1
7:22:12
1:0
6:24:12
1:1
6:22:12
1:0
3:22:12
0:0
7:22:12
1:0
6:24:12
1:1
5:23:12
1:0
7:21:12
1:0
7:23:12
1:0
5:22:12
1:0
7:22:12
1:0
7:22:12
1:1
8:24:12
2:1
7:23:12
1:0
6:22:12
1:0
3:24:12
0:0
7:22:12
1:1
8:22:12
2:-1
6:23:12
1:0
2:21:12
0:0
8:22:12
2:0
7:23:12
1:0
6:23:12
1:0
3:23:12
0:0
7:22:12
1:1
7:20:12
1:-1
6:23:12
1:0
2:22:12
0:0
8:21:12
2:1
7:23:12
1:-1
6:23:12
1:0
7:22:12
1:0
7:23:12
1:1
7:23:12
1:-1
7:23:12
1:-1
4:22:12
1:0
8:22:12
2:0
7:23:12
1:0
8:23:12
2:0
6:23:12
1:0
8:21:12
2:-1
7:22:12
1:-1
6:22:12
1:0
6:22:12
1:0
7:22:12
1:1
7:22:12
1:0
7:21:12
1:0
6:23:12
1:0
7:22:12
1:1
8:21:12
2:0
7:24:12
1:0
7:22:12
1:0
8:22:12
2:0
7:22:12
1:-1
6:24:12
1:1
6:22:12
1:0
7:22:12
1:1
5:21:12
1:0
2:23:12
0:0
3:21:12
0:0
8:22:12
2:0
7:24:12
1:0
7:22:12
1:0
4:23:12
1:0
7:22:12
1:1
8:23:12
2:-1
6:22:12
1:0
7:21:12
1:0
7:22:12
1:0
7:23:12
1:-1
7:21:12
1:0
5:23:12
1:-1
7:23:12
1:1
8:22:12
2:-1
6:22:12
1:0
4:22:12
1:0
8:22:12
2:0
7:22:12
1:-1
7:21:12
1:0
6:23:12
1:0
7:22:12
1:1
8:21:12
2:0
6:23:12
1:0
6:23:12
1:0
7:22:12
1:1
7:21:12
1:0
8:24:12
2:0
7:22:12
1:0
7:22:12
1:1
6:23:12
1:0
6:23:12
1:0
7:21:12
1:0
7:22:12
1:0
7:24:12
1:-1
7:22:12
1:0
4:22:12
1:0
7:22:12
1:1
7:24:12
1:1
7:22:12
1:0
7:21:12
1:0
0:22:12
-1:0
7:24:11
1:1
6:21:12
1:-1
4:21:12
1:0
7:23:12
1:1
7:23:12
1:1
6:22:12
1:0
1:22:12
-1:0
0:22:11
-1:1
7:22:11
1:-1
7:23:11
1:1
6:24:12
1:0
7:22:12
1:0
8:22:12
2:0
7:36:12
1:-1
4:23:12
1:0
7:21:12
1:0
7:23:12
1:0
7:22:12
1:0
4:23:12
1:-1
4:23:12
1:1
7:21:12
1:0
6:22:12
1:0
4:23:12
1:0
7:22:12
1:1
7:22:12
1:-1
8:23:12
2:0
5:23:12
1:0
0:22:12
-1:0
7:24:11
1:1
7:24:12
1:0
7:22:12
1:0
2:20:12
0:0
7:22:12
1:1
7:23:12
1:-1
7:23:12
1:1
6:22:12
1:0
7:22:12
1:1
8:24:12
2:0
7:22:12
1:0
6:24:12
1:1
7:22:12
1:0
7:22:12
1:-1
6:22:12
1:0
0:22:12
-1:0
7:22:11
1:-1
7:23:11
1:1
7:22:12
1:0
5:24:12
1:0
0:22:12
-1:0
0:22:11
-1:1
8:24:11
2:-1
7:22:11
1:0
0:21:12
-1:0
7:23:11
1:1
6:22:12
1:0
0:20:12
-1:0
0:23:11
-1:1
7:24:11
1:1
8:24:12
2:0
7:22:12
1:0
3:23:12
0:0
8:21:12
2:0
8:22:12
2:-1
5:20:12
1:0
2:26:12
0:0
7:21:12
1:0
8:23:12
2:0
6:22:12
1:0
6:24:12
1:0
7:23:12
1:1
7:21:12
1:0
6:22:12
1:0
7:22:12
1:0
7:22:12
1:1
8:21:12
2:0
6:24:12
1:0
2:22:12
0:0
7:22:12
1:1
7:22:12
1:-1
6:24:12
1:1
3:23:12
0:0
7:22:12
1:1
7:23:12
1:-1
7:22:12
1:-1
4:23:12
1:0
7:23:12
1:1
5:24:12
1:0
8:21:12
2:0
4:21:12
1:0
7:22:12
1:1
7:23:12
1:-1
8:23:12
2:0
4:21:12
1:0
7:22:12
1:1
7:22:12
1:-1
8:23:12
2:0
5:24:12
1:0
7:21:12
1:0
8:23:12
2:0
6:22:12
1:-1
6:24:12
1:1
2:23:12
0:0
7:23:12
1:1
7:23:12
1:0
1:21:12
-1:0
6:22:11
1:1
8:23:12
2:1
7:24:12
1:-1
7:22:12
1:0
7:22:12
1:0
1:22:12
-1:0
7:23:11
1:1
7:23:12
1:1
5:23:12
1:0
0:22:12
-1:0
7:22:11
1:1
0:22:12
-1:0
5:23:11
1:-1
7:21:11
1:1
8:23:12
2:1
4:23:12
1:0
6:22:12
1:0
0:21:12
-1:0
7:24:11
1:1
7:23:12
1:0
7:21:12
1:0
0:21:12
-1:0
7:23:11
1:1
7:24:12
1:1
6:22:12
1:-1
2:21:12
0:0
7:21:12
1:0
9:22:12
2:0
7:22:12
1:0
0:22:12
-1:0
7:24:11
1:1
7:22:12
1:-1
6:22:12
1:0
7:20:12
1:0
7:24:12
1:1
7:21:12
1:0
5:23:12
1:0
0:21:12
-1:0
7:24:11
1:1
7:22:12
1:-1
6:24:12
1:1
2:23:12
0:0
5:22:12
1:0
7:22:12
1:0
6:23:12
1:0
6:22:12
1:0
5:21:12
1:0
7:22:12
1:-1
6:22:12
1:0
2:23:12
0:0
7:21:12
1:-1
8:24:12
2:1
6:23:12
1:0
3:22:12
0:0
7:22:12
1:1
7:37:12
1:-1
7:22:12
1:0
6:22:12
1:0
7:21:12
1:0
7:23:12
1:-1
6:23:12
1:-1
5:22:12
1:0
7:22:12
1:1
4:21:12
1:0
6:23:12
1:0
2:23:12
0:0
7:22:12
1:1
4:23:12
1:-1
6:22:12
1:0
2:22:12
0:0
7:22:12
1:1
7:23:12
1:-1
7:22:12
1:0
2:20:12
0:0
7:22:12
1:1
7:24:12
1:-1
6:22:12
1:0
5:23:12
1:-1
7:22:12
1:1
1:22:12
-1:0
2:22:11
0:1
3:23:12
0:0
7:22:12
1:1
7:24:12
1:-1
6:22:12
1:0
0:22:12
-1:0
7:22:11
1:-1
7:23:11
1:1
6:25:12
1:0
6:22:12
1:0
0:21:12
-1:0
1:24:11
-1:1
7:24:11
1:1
5:21:12
1:0
6:23:12
1:-1
7:22:12
1:1
7:22:12
1:0
6:22:12
1:0
6:24:12
1:-1
7:22:12
1:1
7:23:12
1:0
7:22:12
1:0
4:24:12
1:0
0:23:12
-1:1
7:21:12
1:-1
8:23:12
2:0
6:23:12
1:0
7:22:12
1:1
7:23:12
1:0
8:24:12
2:0
5:22:12
1:0
1:21:12
-1:-1
7:21:11
1:1
8:22:12
2:0
7:22:12
1:0
0:23:12
-1:1
7:23:12
1:1
7:23:12
1:-1
5:21:12
1:0
6:23:12
1:0
7:23:12
1:1
8:22:12
2:-1
7:22:12
1:0
6:23:12
1:0
0:20:12
-1:0
7:23:11
1:0
6:22:12
1:0
6:24:12
1:1
6:22:12
1:0
7:22:12
1:0
6:22:12
1:0
7:22:12
1:1
7:23:12
1:0
7:22:12
1:-1
4:23:12
1:0
7:21:12
1:0
7:23:12
1:1
7:22:12
1:-1
6:23:12
1:0
6:22:12
1:0
7:21:12
1:0
7:23:12
1:-1
6:22:12
1:0
7:21:12
1:0
7:22:12
1:1
7:23:12
1:0
0:21:12
-1:0
0:21:11
-1:-1
7:22:10
1:1
8:23:11
2:1
5:22:12
1:0
0:21:12
-1:0
7:22:11
1:1
7:21:12
1:-1
4:23:12
1:0
0:22:12
-1:0
7:24:11
1:1
7:22:12
1:-1
6:23:12
1:0
6:23:12
1:0
7:22:12
1:1
7:22:12
1:0
7:21:12
1:0
0:22:12
-1:0
7:22:11
1:1
6:22:12
1:-1
6:24:12
1:0
7:22:12
1:0
7:22:12
1:1
8:21:12
2:0
6:23:12
1:0
0:21:12
-1:0
7:23:11
1:1
6:16:12
1:0
2:21:12
0:0
7:22:12
1:1
8:21:12
2:-1
0:24:12
-1:0
7:23:11
1:-1
7:22:11
1:1
6:21:12
1:0
6:23:12
1:0
3:23:12
0:0
0:23:12
-1:1
7:22:12
1:-1
7:23:12
1:0
7:22:12
1:0
0:24:12
-1:1
7:24:12
1:1
0:22:12
-1:-1
5:21:11
1:-1
7:21:11
1:1
7:24:12
1:1
0:22:12
-1:0
6:24:11
1:0
1:22:12
-1:0
7:21:11
1:1
7:22:12
1:-1
6:24:12
1:0
7:22:12
1:0
7:22:12
1:1
8:21:12
2:0
1:36:12
-1:0
7:22:11
1:1
7:21:12
1:0
7:23:12
1:0
4:23:12
1:0
0:23:12
-1:0
7:24:11
1:1
7:20:12
1:-1
6:23:12
1:0
7:22:12
1:1
7:23:12
1:1
8:23:12
2:0
6:23:12
1:0
2:23:12
0:0
7:22:12
1:1
7:22:12
1:-1
6:23:12
1:0
7:23:12
1:1
0:22:12
-1:0
8:16:11
2:-1
7:22:11
1:0
7:22:12
1:1
7:24:12
1:1
6:22:12
1:0
6:22:12
1:0
0:21:12
-1:0
7:23:11
1:-1
7:23:11
1:1
7:23:12
1:1
6:23:12
1:0
7:21:12
1:0
6:22:12
1:-1
6:23:12
1:0
6:23:12
1:0
7:22:12
1:1
7:23:12
1:0
6:21:12
1:-1
4:22:12
1:0
7:22:12
1:1
1:22:12
-1:0
5:21:11
1:0
7:21:12
1:0
7:23:12
1:1
5:21:12
1:0
6:23:12
1:0
7:22:12
1:1
7:23:12
1:0
6:23:12
1:-1
5:25:12
1:0
0:18:12
-1:0
7:24:11
1:1
6:25:12
1:0
7:19:12
1:0
1:22:12
-1:0
7:22:11
1:1
6:22:12
1:0
5:23:12
1:-1
0:20:12
-1:-1
7:21:11
1:1
6:23:12
1:0
2:22:12
0:0
0:23:12
-1:1
7:23:12
1:1
7:22:12
1:-1
6:23:12
1:0
6:23:12
1:0
7:22:12
1:1
7:23:12
1:0
7:22:12
1:0
6:23:12
1:0
2:21:12
0:0
8:22:12
2:-1
7:24:12
1:0
3:22:12
0:0
7:22:12
1:-1
7:21:12
1:0
6:23:12
1:0
2:23:12
0:0
7:22:12
1:1
7:22:12
1:-1
5:23:12
1:0
7:21:12
1:0
8:22:12
2:0
7:23:12
1:-1
7:23:12
1:0
6:22:12
1:0
7:21:12
1:0
7:23:12
1:-1
7:23:12
1:0
7:22:12
1:0
7:22:12
1:1
7:23:12
1:0
2:21:12
0:0
6:23:12
1:0
7:23:12
1:1
8:22:12
2:-1
6:22:12
1:0
6:24:12
1:1
2:22:12
0:0
7:24:12
1:1
7:21:12
1:0
6:22:12
1:0
0:21:12
-1:0
7:22:11
1:1
8:24:12
2:0
7:22:12
1:-1
0:21:12
-1:0
7:23:11
1:1
6:22:12
1:0
6:22:12
1:0
0:21:12
-1:0
7:24:11
1:1
7:23:12
1:0
7:21:12
1:0
0:22:12
-1:0
7:22:11
1:1
7:23:12
1:1
6:22:12
1:-1
6:24:12
1:1
7:22:12
1:1
7:23:12
1:0
8:24:12
2:0
6:23:12
1:-1
7:22:12
1:-1
7:21:12
1:0
6:23:12
1:0
7:23:12
1:1
7:22:12
1:1
7:24:12
1:1
6:22:12
1:-1
6:22:12
1:0
0:21:12
-1:0
7:24:11
1:1
7:24:12
1:0
7:22:12
1:0
6:23:12
1:-1
7:21:12
1:0
7:22:12
1:-1
6:23:12
1:0
6:23:12
1:-1
7:22:12
1:1
7:21:12
1:0
7:22:12
1:0
3:24:12
0:0
7:22:12
1:1
8:22:12
2:-1
6:23:12
1:0
0:23:12
-1:0
7:33:11
1:-1
8:23:11
2:1
7:22:12
1:0
7:22:12
1:1
7:24:12
1:1
7:22:12
1:0
5:23:12
1:-1
0:22:12
-1:0
7:23:11
1:0
7:23:12
1:1
6:23:12
1:0
6:23:12
1:0
8:22:12
2:-1
7:22:12
1:0
7:24:12
1:0
6:22:12
1:0
7:22:12
1:1
8:21:12
2:0
6:23:12
1:0
7:21:12
1:0
7:22:12
1:1
7:21:12
1:0
6:25:12
1:1
7:22:12
1:0
5:22:12
1:0
6:22:12
1:0
6:22:12
1:0
7:21:12
1:0
8:22:12
2:0
7:23:12
1:-1
3:23:12
0:0
3:23:12
0:0
7:22:12
1:1
7:23:12
1:-1
7:22:12
1:0
6:22:12
1:0
8:22:12
2:0
7:22:12
1:-1
7:23:12
1:0
3:22:12
0:-1
7:21:12
1:0
8:23:12
2:1
4:23:12
1:0
6:23:12
1:0
7:22:12
1:1
7:22:12
1:0
6:24:12
1:1
4:24:12
1:1
0:21:12
-1:0
8:24:11
2:1
7:23:12
1:0
5:23:12
1:0
0:20:12
-1:0
7:24:11
1:1
8:24:12
2:0
7:22:12
1:0
3:24:12
0:0
8:22:12
2:0
7:22:12
1:0
7:23:12
1:1
6:23:12
1:0
7:21:12
1:-1
8:22:12
2:-1
7:22:12
1:0
4:24:12
1:0
8:22:12
2:0
7:23:12
1:0
8:23:12
2:0
4:23:12
1:0
0:22:12
-1:0
8:24:11
2:1
7:23:12
1:-1
5:21:12
1:0
0:21:12
-1:-1
7:22:11
1:1
8:23:12
2:0
7:22:12
1:0
0:22:12
-1:0
7:23:11
1:1
7:22:12
1:-1
6:22:12
1:0
6:24:12
1:1
7:22:12
1:1
8:21:12
2:0
6:23:12
1:0
3:23:12
0:0
8:22:12
2:0
7:23:12
1:0
6:23:12
1:0
7:22:12
1:0
8:21:12
2:0
4:21:12
1:-1
6:24:12
1:1
7:23:12
1:1
7:22:12
1:1
7:22:12
1:0
7:22:12
1:0
3:22:12
0:0
7:23:12
1:1
8:23:12
2:-1
7:22:12
1:0
4:22:12
1:0
8:22:12
2:0
3:23:12
0:0
7:21:12
1:0
6:22:12
1:0
7:21:12
1:0
6:23:12
1:-1
7:22:12
1:0
4:24:12
1:0
8:22:12
2:0
7:22:12
1:0
7:21:12
1:0
6:23:12
1:0
7:23:12
1:1
7:22:12
1:-1
8:23:12
2:0
5:23:12
1:0
8:22:12
2:0
7:23:12
1:0
7:23:12
1:0
6:22:12
1:0
0:21:12
-1:-1
8:22:11
2:1
6:23:12
1:0
5:23:12
1:0
2:23:12
0:0
7:21:12
1:0
9:22:12
2:-1
7:22:12
1:0
0:22:12
-1:0
8:23:11
2:1
7:23:12
1:-1
6:22:12
1:0
6:23:12
1:0
7:22:12
1:1
7:22:12
1:0
7:21:12
1:0
6:24:12
1:1
8:22:12
2:1
6:22:12
1:0
6:22:12
1:0
6:22:12
1:0
7:22:12
1:1
8:21:12
2:0
5:22:12
1:0
0:21:12
-1:0
7:37:11
1:-1
7:20:11
1:0
3:22:12
0:0
7:22:12
1:1
8:22:12
2:-1
7:23:12
1:0
3:21:12
0:0
7:22:12
1:1
7:23:12
1:-1
7:23:12
1:0
6:23:12
1:0
7:22:12
1:1
5:22:12
1:0
7:22:12
1:0
4:23:12
1:0
8:22:12
2:0
7:23:12
1:0
8:22:12
2:0
4:22:12
1:0
7:22:12
1:1
7:22:12
1:-1
8:24:12
2:0
4:22:12
1:-1
8:22:12
2:0
7:23:12
1:0
5:23:12
1:0
7:22:12
1:0
0:21:12
-1:0
7:22:11
1:1
6:22:12
1:0
1:21:12
-1:0
7:23:11
1:1
7:24:12
1:1
6:22:12
1:0
7:21:12
1:0
0:22:12
-1:0
8:24:11
2:1
7:22:12
1:-1
6:23:12
1:0
6:23:12
1:-1
7:22:12
1:1
7:22:12
1:0
0:24:12
-1:0
3:23:11
0:-1
7:22:11
1:1
7:23:12
1:-1
6:23:12
1:0
6:23:12
1:1
0:23:12
-1:0
7:26:11
1:-1
6:21:11
1:1
6:22:12
1:0
3:21:12
0:0
7:24:12
1:-1
8:22:12
2:0
7:22:12
1:0
0:22:12
-1:0
8:24:11
2:1
7:22:12
1:0
3:21:12
0:0
0:22:12
-1:0
7:23:11
1:1
6:22:12
1:0
5:23:12
1:0
7:21:12
1:0
7:23:12
1:0
7:23:12
1:-1
6:23:12
1:0
7:22:12
1:0
7:22:12
1:1
8:21:12
2:0
6:23:12
1:0
0:21:12
-1:0
6:22:11
1:0
7:23:12
1:0
5:23:12
1:0
0:22:12
-1:0
7:23:11
1:1
8:23:12
2:-1
5:21:12
1:0
0:20:12
-1:0
7:24:11
1:1
7:25:12
1:-1
6:21:12
1:0
6:23:12
1:0
3:22:12
0:0
7:23:12
1:1
7:22:12
1:0
4:24:12
1:0
7:22:12
1:1
7:22:12
1:-1
7:21:12
1:0
6:23:12
1:0
7:22:12
1:1
8:21:12
2:0
6:23:12
1:0
6:22:12
1:0
8:23:12
2:0
7:22:12
1:-1
8:24:12
2:0
7:21:12
1:0
7:22:12
1:1
7:22:12
1:0
0:24:12
-1:0
5:23:11
1:-1
7:21:11
1:1
7:24:12
1:1
6:22:12
1:0
7:23:12
1:1
3:24:12
0:0
7:22:12
1:1
7:22:12
1:-1
6:22:12
1:0
3:23:12
0:0
7:22:12
1:1
8:22:12
2:-1
6:23:12
1:-1
2:21:12
0:0
7:22:12
1:1
7:22:12
1:-1
7:24:12
1:0
7:22:12
1:-1
7:22:12
1:-1
7:22:12
1:0
3:23:12
0:0
3:22:12
0:0
8:22:12
2:0
7:23:12
1:0
6:22:12
1:0
7:21:12
1:0
7:23:12
1:1
7:23:12
1:-1
7:23:12
1:0
4:22:12
1:0
5:21:12
1:0
7:23:12
1:0
7:22:12
1:0
6:23:12
1:0
7:22:12
1:1
7:22:12
1:0
3:21:12
0:0
7:23:12
1:1
7:23:12
1:0
7:22:12
1:-1
8:23:12
2:0
6:23:12
1:0
0:22:12
-1:0
7:37:11
1:-1
6:19:11
1:0
7:22:12
1:0
7:22:12
1:1
0:23:12
-1:0
6:22:11
1:0
5:22:12
1:0
7:22:12
1:1
7:21:12
1:0
6:22:12
1:0
6:24:12
1:1
7:22:12
1:1
4:22:12
1:0
7:21:12
1:0
3:24:12
0:0
7:22:12
1:1
7:22:12
1:-1
6:23:12
1:0
2:21:12
0:0
7:22:12
1:1
7:22:12
1:0
6:24:12
1:1
2:21:12
0:0
7:22:12
1:1
1:22:12
-1:-1
3:24:11
0:1
7:22:12
1:0
7:22:12
1:1
7:23:12
1:0
7:21:12
1:0
2:21:12
0:0
7:22:12
1:1
7:23:12
1:-1
6:23:12
1:0
7:22:12
1:0
8:21:12
2:1
7:25:12
1:0
7:22:12
1:0
4:24:12
1:0
7:22:12
1:0
7:22:12
1:-1
6:22:12
1:0
6:24:12
1:1
7:22:12
1:-1
7:23:12
1:0
6:22:12
1:-1
6:23:12
1:0
7:23:12
1:1
7:24:12
1:1
7:23:12
1:-1
5:24:12
1:0
6:22:12
1:0
8:20:12
2:1
7:25:12
1:0
6:22:12
1:0
7:22:12
1:0
7:22:12
1:1
7:24:12
1:0
7:23:12
1:0
2:23:12
0:0
7:22:12
1:1
7:22:12
1:-1
6:22:12
1:0
6:22:12
1:0
7:22:12
1:1
7:23:12
1:0
7:22:12
1:0
5:23:12
1:0
7:22:12
1:1
8:22:12
2:1
8:23:12
2:0
7:22:12
1:0
7:22:12
1:1
6:23:12
1:0
6:23:12
1:0
5:23:12
1:0
7:24:12
1:0
7:22:12
1:1
7:22:12
1:0
4:22:12
1:0
3:24:12
0:0
7:23:12
1:1
7:21:12
1:0
7:23:12
1:0
6:23:12
1:0
4:22:12
1:0
0:22:12
-1:0
7:23:11
1:0
6:23:12
1:0
7:21:12
1:0
5:21:12
1:-1
7:23:12
1:0
7:22:12
1:0
7:22:12
1:1
7:23:12
1:0
6:23:12
1:0
4:23:12
1:0
2:22:12
0:0
7:24:12
1:1
8:22:12
2:0
7:21:12
1:0
0:22:12
-1:0
7:24:11
1:1
1:22:12
-1:-1
6:23:11
1:1
6:23:12
1:0
7:22:12
1:1
5:21:12
1:0
7:22:12
1:0
2:22:12
0:0
7:22:12
1:1
7:22:12
1:-1
6:23:12
1:0
0:21:12
-1:0
7:22:11
1:1
8:23:12
2:0
6:23:12
1:0
6:22:12
1:0
7:21:12
1:0
6:22:12
1:-1
6:23:12
1:0
0:21:12
-1:0
6:22:11
1:1
6:23:12
1:0
7:20:12
1:0
7:23:12
1:1
7:23:12
1:0
6:23:12
1:0
4:22:12
1:0
8:21:12
2:1
7:24:12
1:1
7:23:12
1:0
7:23:12
1:1
2:22:12
0:0
4:22:12
1:0
7:22:12
1:0
6:22:12
1:0
1:22:12
-1:0
7:22:11
1:0
6:22:12
1:0
1:21:12
-1:0
0:22:11
-1:1
7:24:11
1:-1
7:22:11
1:-1
6:23:11
1:1
0:21:12
-1:0
0:22:11
-1:1
4:35:11
1:-1
7:21:11
1:1
7:22:12
1:1
7:24:12
1:1
6:22:12
1:0
6:21:12
1:0
3:22:12
0:0
7:23:12
1:0
7:21:12
1:0
3:23:12
0:0
7:22:12
1:1
7:23:12
1:-1
1:22:12
-1:0
6:24:11
1:1
7:22:12
1:1
7:22:12
1:0
7:21:12
1:0
3:22:12
0:0
0:22:12
-1:0
7:22:11
1:-1
7:23:11
1:1
6:23:12
1:0
7:22:12
1:1
7:22:12
1:0
6:24:12
1:1
0:22:12
-1:-1
0:23:11
-1:1
7:22:11
1:1
6:23:12
1:0
7:21:12
1:0
7:22:12
1:1
7:24:12
1:-1
7:24:12
1:1
6:22:12
1:0
6:24:12
1:1
8:21:12
2:1
7:24:12
1:0
7:22:12
1:0
6:23:12
1:0
6:21:12
1:0
7:22:12
1:-1
7:23:12
1:0
7:22:12
1:0
8:23:12
2:-1
7:23:12
1:0
7:22:12
1:0
4:23:12
1:0
0:22:12
-1:0
8:24:11
2:1
8:22:12
2:-1
7:22:12
1:0
0:21:12
-1:0
0:23:11
-1:1
7:26:11
1:0
6:23:12
1:0
6:23:12
1:0
7:22:12
1:1
7:22:12
1:0
7:23:12
1:1
2:24:12
0:0
7:22:12
1:1
6:20:12
1:-1
7:23:12
1:0
6:23:12
1:0
8:22:12
2:1
7:23:12
1:0
6:23:12
1:0
3:21:12
0:0
7:22:12
1:1
7:22:12
1:-1
6:23:12
1:0
7:21:12
1:0
7:22:12
1:1
4:21:12
1:0
7:23:12
1:0
3:23:12
0:0
7:22:12
1:1
7:23:12
1:-1
7:23:12
1:0
2:22:12
0:0
7:23:12
1:1
7:23:12
1:-1
7:22:12
1:0
6:22:12
1:0
7:21:12
1:0
1:23:12
-1:-1
7:22:11
1:1
6:24:12
1:1
0:22:12
-1:0
7:23:11
1:1
3:21:12
0:-1
5:23:12
1:0
0:22:12
-1:0
7:24:11
1:1
7:22:12
1:0
6:22:12
1:0
2:23:12
0:0
7:22:12
1:1
7:23:12
1:-1
5:21:12
1:0
0:19:12
-1:0
7:22:11
1:1
8:24:12
2:0
7:22:12
1:0
0:21:12
-1:-1
7:22:11
1:1
6:22:12
1:0
7:21:12
1:0
7:23:12
1:1
7:24:12
1:1
6:22:12
1:0
7:21:12
1:0
0:22:12
-1:0
7:24:11
1:1
7:22:12
1:-1
6:23:12
1:0
5:23:12
1:0
7:22:12
1:1
7:22:12
1:0
6:24:12
1:1
6:22:12
1:0
5:21:12
1:0
4:22:12
1:-1
6:22:12
1:0
7:22:12
1:0
7:22:12
1:1
7:22:12
1:0
6:22:12
1:0
0:21:12
-1:0
7:22:11
1:1
7:23:12
1:0
6:22:12
1:0
0:21:12
-1:0
7:24:11
1:1
8:22:12
2:0
7:22:12
1:0
6:24:12
1:1
7:22:12
1:1
7:22:12
1:0
6:22:12
1:0
1:22:12
-1:0
7:22:11
1:1
7:23:12
1:0
7:22:12
1:0
6:23:12
1:0
7:21:12
1:0
7:22:12
1:-1
4:36:12
1:-1
8:21:12
2:0
7:24:12
1:1
7:24:12
1:1
6:23:12
1:0
6:22:12
1:-1
3:22:12
0:0
7:23:12
1:0
7:23:12
1:1
4:24:12
1:0
7:22:12
1:1
7:22:12
1:-1
7:21:12
1:0
6:23:12
1:0
7:22:12
1:0
7:23:12
1:-1
7:21:12
1:0
6:22:12
1:0
0:21:12
-1:0
8:24:11
2:-1
8:24:11
2:1
7:22:12
1:0
8:22:12
2:1
7:24:12
1:1
9:22:12
2:0
6:22:12
1:0
0:21:12
-1:0
8:22:11
2:1
8:22:12
2:0
4:22:12
1:0
7:22:12
1:1
7:23:12
1:-1
7:23:12
1:1
7:22:12
1:0
0:22:12
-1:0
8:24:11
2:1
7:23:12
1:0
7:22:12
1:0
6:23:12
1:0
5:21:12
1:0
6:21:12
1:-1
5:23:12
1:0
7:21:12
1:0
6:23:12
1:0
8:23:12
2:0
6:23:12
1:0
2:23:12
0:0
7:22:12
1:1
8:22:12
2:-1
5:25:12
1:0
2:21:12
0:0
8:22:12
2:0
7:24:12
1:0
6:22:12
1:-1
3:23:12
0:0
4:21:12
1:0
3:22:12
0:0
7:22:12
1:0
7:21:12
1:0
8:24:12
2:1
7:23:12
1:0
6:21:12
1:0
6:23:12
1:0
7:23:12
1:1
8:22:12
2:-1
7:23:12
1:0
4:23:12
1:0
2:22:12
0:0
7:23:12
1:0
7:22:12
1:0
5:23:12
1:0
7:21:12
1:0
8:22:12
2:-1
0:23:12
-1:0
7:21:11
1:-1
8:22:11
2:1
7:23:12
1:-1
7:23:12
1:0
7:22:12
1:0
7:22:12
1:1
7:21:12
1:-1
6:23:12
1:0
7:21:12
1:0
8:22:12
2:0
7:22:12
1:-1
7:23:12
1:1
4:23:12
1:-1
5:22:12
1:0
8:23:12
2:-1
7:22:12
1:0
7:21:12
1:0
7:22:12
1:1
6:23:12
1:0
7:21:12
1:0
4:24:12
1:0
7:22:12
1:1
8:22:12
2:-1
8:23:12
2:0
5:23:12
1:0
0:22:12
-1:0
7:24:11
1:1
7:20:12
1:0
6:23:12
1:0
0:21:12
-1:0
3:22:11
0:0
8:22:11
2:0
7:22:12
1:0
8:22:12
2:1
7:24:12
1:1
8:24:12
2:0
3:22:12
0:0
7:21:12
1:0
7:22:12
1:1
7:24:12
1:0
7:22:12
1:0
3:24:12
0:0
2:21:12
0:0
7:21:12
1:0
6:22:12
1:0
3:24:12
0:0
7:23:12
1:1
7:21:12
1:0
0:22:12
-1:0
6:22:11
1:-1
7:22:11
1:1
6:21:12
1:0
6:23:12
1:0
2:23:12
0:0
8:22:12
2:0
7:22:12
1:-1
7:24:12
1:0
3:23:12
0:0
7:23:12
1:1
7:21:12
1:0
7:22:12
1:0
3:22:12
0:0
8:22:12
2:0
7:24:12
1:0
7:22:12
1:0
4:23:12
1:0
7:23:12
1:1
8:24:12
2:-1
7:22:12
1:-1
7:21:12
1:0
0:22:12
-1:0
7:23:11
1:1
7:23:12
1:1
1:36:12
-1:-1
8:21:11
2:1
7:22:12
1:0
8:23:12
2:0
4:23:12
1:0
6:22:12
1:0
0:22:12
-1:-1
7:21:11
1:-1
6:22:11
1:1
8:21:12
2:1
7:23:12
1:0
6:22:12
1:0
7:21:12
1:0
7:22:12
1:-1
8:24:12
2:0
7:22:12
1:0
6:23:12
1:0
7:21:12
1:0
7:22:12
1:-1
7:23:12
1:0
4:24:12
1:0
7:21:12
1:0
2:21:12
0:0
6:21:12
1:0
3:23:12
0:0
7:22:12
1:1
6:21:12
1:-1
6:23:12
1:0
7:22:12
1:0
7:22:12
1:1
7:23:12
1:0
7:24:12
1:0
7:22:12
1:0
8:22:12
2:0
7:22:12
1:-1
6:24:12
1:1
4:23:12
1:0
0:23:12
-1:1
7:23:12
1:1
7:22:12
1:-1
5:21:12
1:0
0:22:12
-1:0
7:24:11
1:1
7:22:12
1:-1
7:22:12
1:0
3:24:12
0:0
7:22:12
1:1
7:23:12
1:-1
7:26:12
1:0
2:19:12
0:0
7:22:12
1:1
7:22:12
1:0
7:23:12
1:0
3:22:12
0:0
8:22:12
2:0
1:22:12
-1:0
6:22:11
1:1
7:22:12
1:0
7:23:12
1:1
7:23:12
1:-1
7:22:12
1:0
6:22:12
1:0
7:21:12
1:-1
7:23:12
1:-1
7:21:12
1:0
3:23:12
0:0
7:21:12
1:0
7:24:12
1:0
7:22:12
1:0
6:24:12
1:1
7:23:12
1:1
7:21:12
1:0
8:23:12
2:0
6:23:12
1:0
7:22:12
1:-1
8:23:12
2:0
7:24:12
1:-1
5:22:12
1:0
1:21:12
-1:0
7:22:11
1:1
8:23:12
2:0
7:22:12
1:0
0:21:12
-1:0
7:23:11
1:1
6:21:12
1:0
7:23:12
1:1
2:23:12
0:0
7:23:12
1:0
7:22:12
1:0
7:22:12
1:0
6:24:12
1:1
8:22:12
2:0
5:22:12
1:-1
7:23:12
1:0
6:23:12
1:0
7:22:12
1:1
7:23:12
1:0
7:22:12
1:0
5:24:12
1:0
0:22:12
-1:0
7:23:11
1:1
6:15:12
1:-1
7:22:12
1:0
7:22:12
1:1
1:21:12
-1:0
6:24:11
1:1
0:20:12
-1:0
7:22:11
1:1
6:22:12
1:-1
6:24:12
1:0
7:22:12
1:0
7:22:12
1:-1
7:23:12
1:0
7:21:12
1:0
0:21:12
-1:0
7:23:11
1:1
6:22:12
1:0
4:21:12
1:-1
0:22:12
-1:0
7:24:11
1:1
8:24:12
2:0
7:22:12
1:0
3:24:12
0:0
7:22:12
1:1
7:22:12
1:-1
4:23:12
1:0
6:23:12
1:0
7:22:12
1:1
7:22:12
1:0
7:22:12
1:0
4:23:12
1:0
8:22:12
2:0
7:23:12
1:0
8:23:12
2:0
3:21:12
0:0
5:21:12
1:0
7:23:12
1:0
6:23:12
1:0
3:21:12
0:0
7:21:12
1:0
7:21:12
1:0
3:24:12
0:0
0:22:12
-1:0
7:23:11
1:1
8:23:12
2:-1
7:22:12
1:0
7:23:12
1:1
0:23:12
-1:0
7:36:11
1:-1
6:18:11
1:0
2:23:12
0:0
7:23:12
1:1
8:20:12
2:0
6:23:12
1:0
5:22:12
1:0
7:22:12
1:1
6:23:12
1:0
6:23:12
1:0
6:22:12
1:0
7:21:12
1:0
7:24:12
1:-1
6:22:12
1:0
3:23:12
0:0
7:21:12
1:0
7:23:12
1:0
6:22:12
1:0
3:22:12
0:0
7:22:12
1:1
7:23:12
1:-1
6:22:12
1:0
6:22:12
1:0
7:22:12
1:1
1:22:12
-1:0
7:21:11
1:1
6:23:12
1:0
7:21:12
1:0
7:22:12
1:-1
5:21:12
1:0
2:24:12
0:0
7:23:12
1:1
7:22:12
1:0
6:22:12
1:0
2:23:12
0:0
7:23:12
1:0
7:23:12
1:1
7:22:12
1:-1
7:22:12
1:0
7:22:12
1:1
7:22:12
1:0
6:22:12
1:0
0:22:12
-1:0
7:23:11
1:1
7:23:12
1:-1
6:21:12
1:0
3:23:12
0:0
7:23:12
1:1
7:23:12
1:0
6:21:12
1:0
6:22:12
1:0
7:22:12
1:1
7:22:12
1:0
6:22:12
1:0
6:24:12
1:1
5:22:12
1:0
4:21:12
1:0
7:23:12
1:0
4:23:12
1:0
7:23:12
1:1
7:21:12
1:0
7:21:12
1:0
4:24:12
1:0
7:21:12
1:0
7:23:12
1:0
6:23:12
1:0
6:22:12
1:0
7:21:12
1:0
7:23:12
1:-1
8:23:12
2:0
4:23:12
1:-1
7:21:12
1:0
7:21:12
1:0
0:23:12
-1:0
4:23:11
1:-1
7:22:11
1:1
7:23:12
1:-1
6:22:12
1:0
7:23:12
1:1
0:22:12
-1:0
7:24:11
1:1
7:22:12
1:-1
6:22:12
1:0
0:20:12
-1:0
7:23:11
1:1
7:23:12
1:0
6:25:12
1:0
6:22:12
1:0
7:21:12
1:0
7:22:12
1:-1
2:24:12
0:0
3:23:12
0:0
7:23:12
1:1
7:21:12
1:0
6:23:12
1:0
4:23:12
1:0
7:23:12
1:1
7:24:12
1:1
6:22:12
1:-1
7:21:12
1:0
0:22:12
-1:0
7:24:11
1:1
7:22:12
1:-1
6:23:12
1:0
6:23:12
1:-1
7:22:12
1:1
7:22:12
1:0
6:24:12
1:1
3:23:12
0:0
7:22:12
1:1
7:22:12
1:-1
6:23:12
1:0
7:23:12
1:1
7:22:12
1:1
7:22:12
1:0
6:22:12
1:0
6:22:12
1:0
7:22:12
1:1
7:23:12
1:0
7:22:12
1:0
7:22:12
1:0
7:22:12
1:1
5:23:12
1:0
7:22:12
1:0
0:21:12
-1:0
7:23:11
1:1
7:23:12
1:-1
7:21:12
1:0
3:23:12
0:0
7:23:12
1:1
7:22:12
1:-1
7:22:12
1:0
6:23:12
1:0
7:21:12
1:0
2:22:12
0:-1
7:21:12
1:0
6:25:12
1:0
7:22:12
1:1
5:23:12
1:0
7:23:12
1:0
5:23:12
1:0
0:20:12
-1:0
7:24:11
1:-1
8:22:11
2:0
7:22:12
1:0
2:23:12
0:0
7:22:12
1:1
6:38:12
1:-1
6:23:12
1:0
7:22:12
1:1
7:23:12
1:0
7:20:12
1:-1
6:23:12
1:0
4:22:12
1:0
7:21:12
1:0
6:23:12
1:0
3:22:12
0:0
7:21:12
1:0
7:22:12
1:0
1:22:12
-1:0
3:23:11
0:1
7:22:12
1:1
7:22:12
1:-1
7:22:12
1:0
7:22:12
1:0
0:21:12
-1:0
7:24:11
1:-1
7:21:11
1:1
3:23:12
0:0
6:22:12
1:0
7:23:12
1:-1
7:23:12
1:0
7:21:12
1:0
7:23:12
1:1
7:23:12
1:0
7:23:12
1:1
5:24:12
1:0
7:21:12
1:0
7:23:12
1:-1
6:22:12
1:0
6:22:12
1:0
0:22:12
-1:0
8:23:11
2:1
7:24:12
1:1
6:23:12
1:-1
2:21:12
0:0
7:22:12
1:0
7:24:12
1:0
7:22:12
1:0
7:21:12
1:0
7:22:12
1:0
7:21:12
1:-1
5:23:12
1:0
0:20:12
-1:0
7:23:11
1:1
7:23:12
1:0
4:21:12
1:0
0:22:12
-1:0
7:24:11
1:1
7:22:12
1:-1
6:23:12
1:0
6:23:12
1:0
4:22:12
1:0
7:22:12
1:0
7:23:12
1:1
4:24:12
1:0
7:22:12
1:1
7:22:12
1:-1
3:23:12
0:0
7:23:12
1:1
7:22:12
1:1
7:24:12
1:1
6:22:12
1:0
4:21:12
1:0
0:22:12
-1:0
7:23:11
1:1
7:24:12
1:0
7:22:12
1:-1
6:23:12
1:0
7:21:12
1:0
2:22:12
0:-1
7:22:12
1:0
6:24:12
1:1
7:22:12
1:1
7:22:12
1:0
7:23:12
1:1
4:24:12
1:0
7:22:12
1:1
7:22:12
1:-1
6:23:12
1:0
7:22:12
1:1
7:22:12
1:1
2:24:12
0:0
6:22:12
1:0
5:23:12
1:0
7:22:12
1:0
7:22:12
1:1
5:24:12
1:0
1:22:12
-1:0
6:23:11
1:1
7:22:12
1:1
7:23:12
1:1
6:22:12
1:0
6:24:12
1:1
1:22:12
-1:0
7:22:11
1:1
7:21:12
1:0
3:22:12
0:0
7:22:12
1:1
8:22:12
2:-1
6:23:12
1:0
6:21:12
1:-1
7:22:12
1:1
7:21:12
1:0
6:23:12
1:0
2:23:12
0:0
7:22:12
1:1
7:22:12
1:-1
7:24:12
1:0
7:22:12
1:0
7:22:12
1:1
7:24:12
1:0
7:22:12
1:0
6:22:12
1:0
7:22:12
1:1
7:22:12
1:0
7:23:12
1:0
7:22:12
1:0
7:22:12
1:1
7:22:12
1:0
7:22:12
1:0
6:22:12
1:0
7:23:12
1:1
7:21:12
1:0
6:22:12
1:0
3:23:12
0:0
7:21:12
1:0
7:22:12
1:0
7:21:12
1:0
2:22:12
0:0
7:22:12
1:1
8:22:12
2:-1
5:23:12
1:-1
2:23:12
0:0
8:22:12
2:0
7:22:12
1:0
6:22:12
1:0
2:23:12
0:0
7:22:12
1:1
7:22:12
1:-1
6:23:12
1:0
7:21:12
1:0
7:22:12
1:1
7:24:12
1:0
5:38:12
1:0
7:21:12
1:0
8:24:12
2:1
7:22:12
1:0
6:23:12
1:0
0:21:12
-1:0
7:23:11
1:1
7:22:12
1:-1
2:24:12
0:0
2:22:12
0:0
7:22:12
1:1
7:22:12
1:-1
7:24:12
1:0
7:22:12
1:0
7:22:12
1:1
8:22:12
2:0
6:22:12
1:0
7:21:12
1:0
7:22:12
1:1
7:24:12
1:-1
6:22:12
1:0
7:22:12
1:0
7:22:12
1:1
8:24:12
2:0
7:22:12
1:0
7:23:12
1:-1
7:23:12
1:1
7:22:12
1:0
6:22:12
1:0
6:24:12
1:1
7:22:12
1:1
7:23:12
1:-1
6:22:12
1:0
6:23:12
1:0
8:21:12
2:1
8:23:12
2:1
7:23:12
1:0
7:22:12
1:-1
0:21:12
-1:0
8:22:11
2:0
8:24:12
2:0
7:22:12
1:0
7:23:12
1:1
7:23:12
1:0
7:24:12
1:1
6:22:12
1:0
6:23:12
1:0
7:23:12
1:1
7:24:12
1:1
6:19:12
1:0
5:24:12
1:0
7:22:12
1:1
7:23:12
1:1
7:21:12
1:0
7:22:12
1:0
5:22:12
1:0
7:22:12
1:0
7:22:12
1:0
6:22:12
1:0
7:21:12
1:0
8:22:12
2:-1
7:24:12
1:0
3:22:12
0:0
8:22:12
2:0
7:23:12
1:0
6:23:12
1:0
6:22:12
1:0
2:22:12
0:0
7:23:12
1:0
6:21:12
1:0
3:21:12
0:0
8:22:12
2:1
7:23:12
1:-1
2:23:12
0:0
7:22:12
1:0
7:22:12
1:1
8:22:12
2:0
7:22:12
1:0
6:24:12
1:1
8:22:12
2:0
7:22:12
1:-1
7:21:12
1:0
3:22:12
0:0
7:21:12
1:0
8:22:12
2:1
7:23:12
1:0
6:23:12
1:0
5:22:12
1:0
7:22:12
1:-1
6:24:12
1:1
7:23:12
1:1
0:22:12
-1:0
8:22:11
2:1
6:23:12
1:0
7:21:12
1:0
0:22:12
-1:0
7:24:11
1:1
8:24:12
2:0
6:22:12
1:0
3:24:12
0:0
7:22:12
1:0
7:23:12
1:0
7:22:12
1:0
6:23:12
1:0
5:21:12
1:0
8:22:12
2:-1
7:22:12
1:0
6:24:12
1:1
7:22:12
1:1
7:22:12
1:0
7:22:12
1:0
6:22:12
1:0
7:23:12
1:1
8:22:12
2:-1
6:23:12
1:0
3:22:12
0:0
8:21:12
2:1
7:22:12
1:-1
6:22:12
1:0
6:22:12
1:0
7:22:12
1:1
3:24:12
0:0
1:22:12
-1:0
7:23:11
1:1
8:22:12
2:0
7:23:12
1:-1
8:23:12
2:0
7:22:12
1:0
1:22:12
-1:0
8:24:11
2:1
8:23:12
2:-1
6:23:12
1:0
7:22:12
1:0
7:23:12
1:1
8:22:12
2:-1
6:23:12
1:-1
3:23:12
0:0
8:22:12
2:0
7:22:12
1:0
7:22:12
1:0
7:22:12
1:0
7:23:12
1:-1
8:23:12
2:-1
7:23:12
1:0
4:22:12
1:0
8:22:12
2:0
7:23:12
1:0
3:35:12
0:-1
2:23:12
0:0
7:22:12
1:1
7:22:12
1:-1
6:23:12
1:0
6:21:12
1:0
2:22:12
0:0
8:23:12
2:0
6:23:12
1:0
3:23:12
0:0
7:21:12
1:0
7:23:12
1:0
6:22:12
1:0
7:22:12
1:0
7:22:12
1:1
7:22:12
1:0
7:22:12
1:0
6:22:12
1:0
8:21:12
2:1
7:23:12
1:-1
6:22:12
1:0
0:21:12
-1:0
7:22:11
1:0
7:23:12
1:0
6:23:12
1:0
6:23:12
1:0
7:22:12
1:0
7:22:12
1:-1
6:22:12
1:0
6:22:12
1:0
7:22:12
1:1
6:22:12
1:0
6:23:12
1:0
2:22:12
0:0
7:22:12
1:1
7:23:12
1:-1
6:23:12
1:-1
5:22:12
1:0
7:22:12
1:1
7:22:12
1:0
6:24:12
1:1
7:23:12
1:1
7:22:12
1:0
5:23:12
1:-1
7:23:12
1:1
5:23:12
1:0
2:23:12
0:0
7:24:12
1:1
7:26:12
1:-1
8:21:12
2:0
6:23:12
1:0
7:22:12
1:1
0:22:12
-1:0
6:24:11
1:0
4:21:12
1:0
6:22:12
1:0
6:23:12
1:0
7:23:12
1:0
7:22:12
1:0
0:21:12
-1:0
7:23:11
1:-1
4:22:11
1:0
5:23:12
1:0
1:23:12
-1:0
7:22:11
1:1
6:22:12
1:0
5:22:12
1:0
0:21:12
-1:0
8:24:11
2:1
7:22:12
1:0
6:22:12
1:0
0:21:12
-1:0
7:24:11
1:1
4:22:12
1:-1
6:24:12
1:0
2:22:12
0:0
7:22:12
1:1
7:22:12
1:-1
7:24:12
1:0
1:22:12
-1:0
7:22:11
1:1
7:22:12
1:0
6:22:12
1:0
7:20:12
1:0
8:24:12
2:1
0:23:12
-1:0
6:22:11
1:-1
6:21:11
1:1
7:22:12
1:1
8:24:12
2:0
7:22:12
1:0
4:23:12
1:0
7:22:12
1:1
7:23:12
1:-1
6:22:12
1:0
6:24:12
1:1
7:22:12
1:1
7:23:12
1:0
6:22:12
1:-1
6:23:12
1:0
1:22:12
-1:0
7:22:11
1:1
8:22:12
2:-1
6:24:12
1:0
7:19:12
1:-1
7:23:12
1:0
8:24:12
2:0
2:22:12
0:0
7:22:12
1:0
7:22:12
1:1
6:23:12
1:0
5:22:12
1:0
0:20:12
-1:0
7:23:11
1:1
7:23:12
1:-1
5:21:12
1:0
0:21:12
-1:0
7:24:11
1:1
8:23:12
2:0
7:22:12
1:0
3:24:12
0:0
6:22:12
1:0
4:22:12
1:-1
7:23:12
1:0
7:22:12
1:0
7:23:12
1:1
7:22:12
1:0
7:23:12
1:0
3:22:12
0:0
7:22:12
1:1
7:23:12
1:-1
8:23:12
2:0
7:22:12
1:0
7:22:12
1:1
7:21:12
1:0
6:23:12
1:-1
6:22:12
1:0
7:21:12
1:0
7:23:12
1:-1
7:23:12
1:0
0:22:12
-1:0
7:22:11
1:-1
8:22:11
2:0
7:22:12
1:0
4:23:12
1:0
7:22:12
1:1
7:23:12
1:-1
3:35:12
0:-1
2:23:12
0:0
7:23:12
1:1
7:21:12
1:0
6:22:12
1:0
6:22:12
1:-1
2:22:12
0:0
7:24:12
1:0
7:22:12
1:0
6:22:12
1:0
7:21:12
1:0
7:23:12
1:-1
6:23:12
1:0
3:23:12
0:0
7:21:12
1:0
7:23:12
1:0
6:22:12
1:0
3:23:12
0:0
0:21:12
-1:0
7:23:11
1:-1
6:22:11
1:1
6:24:12
1:1
7:22:12
1:1
7:23:12
1:0
7:22:12
1:0
6:23:12
1:-1
7:21:12
1:0
7:22:12
1:-1
8:24:12
2:0
4:23:12
1:0
7:21:12
1:0
7:23:12
1:-1
6:23:12
1:0
5:23:12
1:0
2:23:12
0:0
0:21:12
-1:0
7:23:11
1:0
7:21:12
1:-1
0:22:12
-1:0
6:23:11
1:0
7:22:12
1:-1
6:22:12
1:0
7:23:12
1:1
7:23:12
1:0
7:21:12
1:0
6:23:12
1:0
3:23:12
0:0
7:22:12
1:1
7:22:12
1:-1
7:24:12
1:0
3:23:12
0:0
7:23:12
1:1
0:22:12
-1:0
6:24:11
1:0
4:21:12
1:0
6:22:12
1:0
7:24:12
1:1
7:24:12
1:0
7:20:12
1:0
0:22:12
-1:0
7:23:11
1:-1
4:21:11
1:0
5:23:12
1:0
7:21:12
1:0
7:24:12
1:1
8:21:12
2:0
7:22:12
1:0
0:22:12
-1:0
7:24:11
1:1
7:22:12
1:-1
6:23:12
1:0
0:21:12
-1:0
7:22:11
1:1
3:21:12
0:0
6:25:12
1:0
6:22:12
1:0
7:21:12
1:0
6:22:12
1:-1
6:24:12
1:0
2:23:12
0:0
7:21:12
1:0
7:24:12
1:0
7:22:12
1:0
3:22:12
0:0
7:23:12
1:1
7:23:12
1:0
6:21:12
1:0
6:21:12
1:0
7:22:12
1:1
7:24:12
1:0
7:22:12
1:0
6:23:12
1:0
7:21:12
1:-1
7:22:12
1:-1
6:22:12
1:0
6:22:12
1:0
7:22:12
1:1
7:22:12
1:0
6:21:12
1:0
3:24:12
0:0
8:22:12
2:0
7:23:12
1:0
7:23:12
1:0
7:22:12
1:0
6:22:12
1:0
7:23:12
1:0
8:24:12
2:0
6:23:12
1:0
8:21:12
2:1
7:24:12
1:1
7:24:12
1:0
7:22:12
1:0
3:24:12
0:0
7:22:12
1:1
7:22:12
1:-1
7:23:12
1:0
6:23:12
1:0
2:23:12
0:1
7:22:12
1:-1
7:22:12
1:0
4:22:12
1:0
7:22:12
1:0
5:22:12
1:-1
8:24:12
2:0
7:22:12
1:0
7:22:12
1:1
7:23:12
1:0
6:23:12
1:0
5:23:12
1:0
7:22:12
1:0
7:22:12
1:1
7:23:12
1:0
7:23:12
1:1
3:24:12
0:0
2:22:12
0:0
7:22:12
1:-1
6:22:12
1:0
6:24:12
1:1
7:22:12
1:1
7:23:12
1:0
4:22:12
1:0
6:23:12
1:0
7:21:12
1:0
7:22:12
1:-1
8:24:12
2:0
4:23:12
1:0
0:21:12
-1:0
7:38:11
1:-1
8:23:11
2:1
6:23:12
1:0
0:22:12
-1:0
4:23:11
1:0
7:22:12
1:-1
6:23:12
1:-1
0:21:12
-1:0
7:22:11
1:-1
8:21:11
2:0
5:23:12
1:0
7:22:12
1:0
7:24:12
1:0
6:22:12
1:0
6:22:12
1:0
0:21:12
-1:0
7:24:11
1:1
7:24:12
1:0
6:22:12
1:-1
6:22:12
1:0
7:21:12
1:0
7:23:12
1:-1
7:22:12
1:0
6:24:12
1:1
5:22:12
1:0
7:21:12
1:0
7:22:12
1:0
3:24:12
0:0
7:22:12
1:1
7:22:12
1:-1
3:22:12
0:0
6:22:12
1:0
7:22:12
1:1
7:22:12
1:0
6:24:12
1:1
7:22:12
1:0
7:21:12
1:0
7:22:12
1:-1
6:24:12
1:1
7:24:12
1:1
7:22:12
1:1
7:23:12
1:0
1:21:12
-1:0
4:23:11
1:1
7:22:12
1:1
7:23:12
1:-1
6:22:12
1:0
4:24:12
1:1
0:20:12
-1:1
7:23:12
1:-1
7:22:12
1:0
5:23:12
1:0
7:21:12
1:0
7:24:12
1:1
6:22:12
1:0
6:24:12
1:-1
2:23:12
0:0
7:21:12
1:0
7:21:12
1:0
6:23:12
1:0
0:21:12
-1:0
7:24:11
1:1
7:23:12
1:0
6:23:12
1:0
6:22:12
1:0
7:22:12
1:1
7:23:12
1:1
6:22:12
1:-1
7:21:12
1:0
7:22:12
1:1
7:22:12
1:0
7:22:12
1:0
3:23:12
0:0
6:21:12
1:-1
7:22:12
1:0
6:22:12
1:0
6:24:12
1:1
7:22:12
1:1
7:23:12
1:0
5:22:12
1:0
6:23:12
1:0
7:21:12
1:0
7:22:12
1:-1
7:23:12
1:1
6:24:12
1:1
5:22:12
1:0
3:23:12
0:0
7:23:12
1:0
5:23:12
1:0
7:22:12
1:0
7:22:12
1:1
4:23:12
1:0
7:21:12
1:0
2:23:12
0:0
7:23:12
1:1
7:24:12
1:1
6:22:12
1:0
3:22:12
0:0
7:22:12
1:1
7:22:12
1:0
7:21:12
1:0
6:23:12
1:0
7:21:12
1:0
1:21:12
-1:-1
6:24:11
1:1
6:25:12
1:0
7:23:12
1:1
7:21:12
1:-1
6:22:12
1:0
0:22:12
-1:0
7:22:11
1:-1
7:21:11
1:1
7:24:12
1:0
7:22:12
1:0
7:22:12
1:1
7:23:12
1:0
6:23:12
1:0
4:23:12
1:0
7:22:12
1:1
7:21:12
1:-1
7:23:12
1:1
7:22:12
1:0
7:22:12
1:-1
7:24:12
1:0
7:22:12
1:0
6:22:12
1:0
0:22:12
-1:0
8:24:11
2:1
8:23:12
2:-1
6:23:12
1:0
2:23:12
0:0
7:22:12
1:1
7:22:12
1:-1
7:24:12
1:0
7:22:12
1:0
7:22:12
1:1
7:22:12
1:0
7:23:12
1:1
6:23:12
1:0
7:22:12
1:1
7:22:12
1:-1
5:21:12
1:0
7:22:12
1:0
8:24:12
2:1
7:23:12
1:-1
7:21:12
1:0
2:36:12
0:0
8:22:12
2:0
7:22:12
1:0
6:22:12
1:0
2:23:12
0:0
5:22:12
1:0
8:22:12
2:-1
7:24:12
1:-1
7:22:12
1:0
8:22:12
2:0
7:23:12
1:-1
7:23:12
1:1
4:23:12
1:0
7:22:12
1:1
7:23:12
1:-1
7:22:12
1:0
7:21:12
1:0
0:24:12
-1:1
8:24:12
2:1
8:22:12
2:-1
6:23:12
1:0
7:23:12
1:1
6:22:12
1:0
7:22:12
1:-1
6:22:12
1:0
0:20:12
-1:0
7:23:11
1:-1
7:22:11
1:-1
6:24:11
1:1
7:22:12
1:0
8:22:12
2:0
6:23:12
1:-1
7:23:12
1:1
3:23:12
0:0
7:22:12
1:1
7:23:12
1:-1
7:22:12
1:0
5:21:12
1:0
7:24:12
1:1
7:23:12
1:0
8:23:12
2:0
6:23:12
1:0
7:22:12
1:1
6:23:12
1:0
8:23:12
2:0
6:23:12
1:0
7:22:12
1:0
7:23:12
1:1
8:22:12
2:-1
5:23:12
1:0
3:23:12
0:0
7:22:12
1:1
7:22:12
1:-1
7:22:12
1:-1
3:23:12
0:0
7:22:12
1:1
7:23:12
1:-1
7:23:12
1:0
7:22:12
1:0
7:22:12
1:1
7:23:12
1:0
7:21:12
1:0
6:23:12
1:0
7:22:12
1:1
7:21:12
1:0
7:23:12
1:0
4:22:12
1:0
2:22:12
0:0
7:23:12
1:0
7:22:12
1:0
6:23:12
1:0
7:22:12
1:1
7:22:12
1:0
0:22:12
-1:0
6:22:11
1:-1
8:21:11
2:1
7:23:12
1:0
8:23:12
2:0
3:21:12
0:0
7:23:12
1:1
8:21:12
2:-1
6:23:12
1:0
7:21:12
1:0
7:22:12
1:1
6:17:12
1:0
7:23:12
1:1
5:22:12
1:0
7:22:12
1:1
6:23:12
1:0
5:22:12
1:0
0:20:12
-1:0
7:22:11
1:-1
3:22:11
0:0
7:21:11
1:1
7:23:12
1:1
7:24:12
1:1
7:23:12
1:1
7:22:12
1:0
3:24:12
0:0
8:22:12
2:0
7:22:12
1:0
7:23:12
1:0
6:23:12
1:0
7:21:12
1:0
2:22:12
0:-1
6:23:12
1:0
3:23:12
0:0
7:22:12
1:0
7:22:12
1:0
7:22:12
1:0
0:22:12
-1:0
7:22:11
1:-1
8:23:11
2:1
6:23:12
1:0
3:21:12
0:0
8:22:12
2:1
7:23:12
1:-1
7:23:12
1:-1
4:23:12
1:0
7:21:12
1:0
7:23:12
1:0
7:21:12
1:0
7:23:12
1:1
8:22:12
2:-1
7:23:12
1:-1
5:21:12
1:0
6:23:12
1:0
7:22:12
1:1
8:23:12
2:0
7:22:12
1:0
4:22:12
1:0
8:22:12
2:1
7:21:12
1:-1
7:22:12
1:0
4:24:12
1:0
3:22:12
0:0
8:22:12
2:-1
7:22:12
1:0
3:22:12
0:0
7:22:12
1:-1
7:23:12
1:0
8:23:12
2:0
6:22:12
1:0
7:22:12
1:1
8:23:12
2:1
8:24:12
2:0
7:22:12
1:0
0:21:12
-1:0
8:36:11
2:-1
6:22:11
1:1
3:22:12
0:0
7:22:12
1:1
7:22:12
1:-1
7:24:12
1:0
3:23:12
0:0
7:21:12
1:0
7:21:12
1:0
6:23:12
1:0
3:23:12
0:0
8:22:12
2:0
5:22:12
1:0
7:22:12
1:0
7:22:12
1:0
7:23:12
1:1
7:23:12
1:-1
7:22:12
1:0
3:21:12
0:0
7:22:12
1:1
7:23:12
1:-1
7:21:12
1:0
7:22:12
1:0
7:22:12
1:1
8:24:12
2:0
7:22:12
1:0
6:24:12
1:1
7:22:12
1:0
7:22:12
1:-1
6:22:12
1:0
0:22:12
-1:0
7:22:11
1:-1
7:23:11
1:1
7:22:12
1:0
5:24:12
1:0
0:22:12
-1:0
0:22:11
-1:1
8:24:11
2:-1
7:22:11
1:0
0:21:12
-1:0
7:23:11
1:1
6:22:12
1:0
6:22:12
1:0
0:21:12
-1:-1
7:24:11
1:1
8:24:12
2:0
7:22:12
1:0
6:23:12
1:0
7:22:12
1:1
7:22:12
1:-1
6:22:12
1:0
6:23:12
1:0
7:22:12
1:1
7:23:12
1:0
7:22:12
1:0
6:22:12
1:-1
7:23:12
1:1
7:21:12
1:0
6:22:12
1:0
7:22:12
1:0
7:22:12
1:1
8:21:12
2:0
6:24:12
1:0
2:22:12
0:0
7:22:12
1:1
7:22:12
1:-1
7:23:12
1:1
3:23:12
0:0
7:22:12
1:1
0:22:12
-1:-1
7:23:11
1:0
4:23:12
1:0
7:23:12
1:1
5:24:12
1:0
8:21:12
2:0
4:21:12
1:0
7:22:12
1:1
7:23:12
1:-1
8:23:12
2:0
4:21:12
1:0
7:22:12
1:1
7:22:12
1:-1
8:23:12
2:0
5:24:12
1:0
7:21:12
1:0
8:23:12
2:0
6:22:12
1:-1
6:24:12
1:1
2:23:12
0:0
7:23:12
1:1
6:22:12
1:0
1:22:12
-1:0
6:22:11
1:1
8:23:12
2:1
7:24:12
1:-1
7:22:12
1:0
7:22:12
1:0
1:22:12
-1:0
7:23:11
1:1
7:23:12
1:1
5:24:12
1:0
0:22:12
-1:0
7:22:11
1:1
0:21:12
-1:0
6:25:11
1:-1
2:23:11
0:1
7:22:12
1:1
7:22:12
1:-1
6:23:12
1:0
0:23:12
-1:0
7:22:11
1:-1
7:22:11
1:0
6:22:12
1:0
2:21:12
0:0
7:22:12
1:1
7:24:12
1:-1
6:22:12
1:0
7:22:12
1:0
7:22:12
1:1
7:23:12
1:0
6:22:12
1:0
3:23:12
0:-1
7:22:12
1:1
7:23:12
1:-1
5:22:12
1:0
6:23:12
1:0
7:22:12
1:1
8:21:12
2:0
7:24:12
1:0
4:22:12
1:0
7:22:12
1:1
7:23:12
1:-1
8:23:12
2:0
7:22:12
1:0
6:22:12
1:0
7:22:12
1:0
6:22:12
1:0
7:21:12
1:0
8:22:12
2:0
7:22:12
1:-1
7:22:12
1:0
7:22:12
1:0
7:22:12
1:1
8:22:12
2:0
6:23:12
1:0
3:22:12
0:0
7:22:12
1:1
7:37:12
1:-1
6:23:12
1:0
6:22:12
1:0
7:21:12
1:0
0:22:12
-1:-1
6:24:11
1:0
5:22:12
1:0
7:22:12
1:1
7:22:12
1:0
6:22:12
1:0
2:23:12
0:0
7:22:12
1:1
4:23:12
1:-1
6:22:12
1:0
2:22:12
0:0
7:22:12
1:1
7:23:12
1:-1
7:22:12
1:0
2:21:12
0:0
7:22:12
1:1
7:24:12
1:-1
6:22:12
1:0
6:23:12
1:-1
7:22:12
1:1
1:22:12
-1:0
7:21:11
1:1
3:24:12
0:0
7:22:12
1:1
7:24:12
1:-1
6:22:12
1:0
0:22:12
-1:0
7:22:11
1:-1
7:23:11
1:1
6:25:12
1:0
6:22:12
1:0
0:21:12
-1:0
1:24:11
-1:1
7:24:11
1:1
5:21:12
1:0
6:23:12
1:-1
7:22:12
1:1
7:22:12
1:0
5:23:12
1:0
3:24:12
0:0
7:23:12
1:1
7:22:12
1:0
7:21:12
1:0
4:26:12
1:0
0:23:12
-1:1
7:21:12
1:-1
8:23:12
2:0
6:24:12
1:0
7:22:12
1:1
7:23:12
1:0
8:24:12
2:0
7:22:12
1:0
7:22:12
1:0
7:22:12
1:1
7:23:12
1:0
7:23:12
1:1
3:23:12
0:0
7:22:12
1:1
7:23:12
1:-1
6:22:12
1:0
6:24:12
1:1
7:22:12
1:1
7:21:12
1:0
7:21:12
1:-1
3:22:12
0:0
7:21:12
1:0
7:23:12
1:1
7:23:12
1:0
6:23:12
1:0
7:22:12
1:0
7:22:12
1:0
6:24:12
1:1
4:23:12
1:0
0:22:12
-1:0
7:24:11
1:1
7:23:12
1:-1
7:21:12
1:0
0:21:12
-1:0
7:23:11
1:1
7:23:12
1:-1
6:22:12
1:0
6:24:12
1:0
7:22:12
1:1
7:22:12
1:0
7:21:12
1:0
6:23:12
1:0
7:21:12
1:0
4:22:12
1:-1
6:22:12
1:0
6:24:12
1:1
7:22:12
1:1
7:22:12
1:0
6:22:12
1:0
2:20:12
0:0
7:23:12
1:0
7:22:12
1:-1
6:24:12
1:0
7:22:12
1:0
7:22:12
1:1
1:22:12
-1:0
6:24:11
1:1
3:23:12
0:0
7:22:12
1:1
7:23:12
1:-1
6:22:12
1:0
1:23:12
-1:0
7:23:11
1:1
7:23:12
1:-1
7:22:12
1:0
6:22:12
1:0
7:22:12
1:1
1:24:12
-1:0
8:23:11
2:1
6:23:12
1:-1
6:22:12
1:0
7:21:12
1:0
2:23:12
0:-1
6:23:12
1:0
7:22:12
1:0
7:22:12
1:1
7:21:12
1:0
6:23:12
1:0
2:23:12
0:0
7:22:12
1:1
7:23:12
1:-1
6:22:12
1:0
2:22:12
0:0
7:22:12
1:1
7:23:12
1:-1
7:22:12
1:0
2:21:12
0:-1
7:22:12
1:1
7:24:12
1:-1
7:22:12
1:0
6:23:12
1:0
7:22:12
1:1
6:22:12
1:0
7:21:12
1:0
3:24:12
0:0
7:22:12
1:1
7:24:12
1:-1
6:22:12
1:0
2:36:12
0:0
8:22:12
2:0
7:23:12
1:0
6:22:12
1:0
7:23:12
1:1
7:22:12
1:1
7:23:12
1:0
7:21:12
1:-1
2:22:12
0:0
7:22:12
1:-1
7:22:12
1:-1
6:23:12
1:0
6:23:12
1:0
8:22:12
2:-1
7:22:12
1:0
7:23:12
1:1
4:24:12
1:0
7:22:12
1:1
7:22:12
1:-1
6:23:12
1:-1
7:23:12
1:1
7:22:12
1:1
5:23:12
1:0
6:23:12
1:0
6:22:12
1:0
0:21:12
-1:0
7:24:11
1:-1
7:23:11
1:1
7:23:12
1:1
6:23:12
1:0
7:21:12
1:0
6:22:12
1:-1
6:23:12
1:0
6:23:12
1:0
7:22:12
1:1
7:23:12
1:0
7:22:12
1:-1
5:23:12
1:0
7:22:12
1:1
7:21:12
1:0
6:23:12
1:0
2:22:12
0:0
7:21:12
1:0
3:22:12
0:0
6:23:12
1:0
2:22:12
0:0
7:22:12
1:1
7:24:12
1:-1
7:25:12
1:0
2:19:12
0:0
6:26:12
1:1
7:22:12
1:0
7:20:12
1:0
6:22:12
1:0
7:22:12
1:1
2:24:12
0:0
6:22:12
1:0
7:21:12
1:0
7:22:12
1:1
7:23:12
1:0
7:23:12
1:1
5:24:12
1:0
7:21:12
1:0
7:23:12
1:1
8:23:12
2:0
6:23:12
1:0
2:22:12
0:0
7:22:12
1:1
7:22:12
1:-1
6:23:12
1:0
7:21:12
1:0
7:22:12
1:1
7:24:12
1:0
7:22:12
1:0
6:22:12
1:-1
7:21:12
1:0
7:23:12
1:-1
7:22:12
1:0
7:21:12
1:0
7:22:12
1:1
8:22:12
2:-1
7:22:12
1:0
0:22:12
-1:0
7:23:11
1:1
7:22:12
1:-1
6:22:12
1:0
5:22:12
1:0
7:22:12
1:1
8:23:12
2:0
7:22:12
1:0
6:23:12
1:0
7:21:12
1:0
4:22:12
1:-1
6:24:12
1:0
7:22:12
1:0
7:22:12
1:1
7:22:12
1:0
6:22:12
1:0
2:23:12
0:0
7:23:12
1:1
7:23:12
1:1
7:22:12
1:0
7:22:12
1:0
7:22:12
1:1
2:23:12
0:0
7:21:12
1:0
6:22:12
1:0
7:22:12
1:1
7:22:12
1:0
6:23:12
1:0
4:24:12
1:0
7:23:12
1:1
7:22:12
1:-1
7:21:12
1:0
4:24:12
1:0
7:23:12
1:1
1:23:12
-1:0
6:22:11
1:1
6:22:12
1:0
7:22:12
1:1
7:24:12
1:1
7:23:12
1:1
0:23:12
-1:0
7:21:11
1:-1
7:22:11
1:1
7:23:12
1:0
7:23:12
1:1
3:23:12
0:0
7:22:12
1:1
7:23:12
1:-1
6:21:12
1:0
7:22:12
1:0
7:22:12
1:1
7:23:12
1:0
7:21:12
1:0
6:23:12
1:-1
7:21:12
1:0
7:22:12
1:-1
7:23:12
1:1
6:23:12
1:0
7:22:12
1:1
7:21:12
1:0
7:22:12
1:0
3:24:12
0:0
7:22:12
1:1
8:22:12
2:-1
6:23:12
1:0
0:23:12
-1:0
7:33:11
1:-1
6:22:11
1:1
6:22:12
1:0
7:22:12
1:1
7:22:12
1:0
6:23:12
1:0
6:22:12
1:0
8:22:12
2:0
7:23:12
1:-1
7:23:12
1:0
4:23:12
1:0
7:23:12
1:1
7:24:12
1:0
7:22:12
1:0
5:23:12
1:0
0:21:12
-1:0
7:23:11
1:1
8:22:12
2:-1
5:22:12
1:-1
7:21:12
1:0
8:23:12
2:0
6:22:12
1:-1
6:24:12
1:0
7:20:12
1:0
4:24:12
1:0
7:22:12
1:0
5:23:12
1:0
7:22:12
1:0
8:22:12
2:0
7:23:12
1:-1
3:23:12
0:0
3:23:12
0:0
7:22:12
1:1
7:23:12
1:-1
7:22:12
1:0
3:23:12
0:0
8:21:12
2:1
7:22:12
1:-1
0:22:12
-1:0
3:23:11
0:0
7:21:11
1:1
8:23:12
2:1
6:23:12
1:0
6:23:12
1:0
7:22:12
1:1
7:23:12
1:0
6:24:12
1:1
7:21:12
1:0
0:23:12
-1:0
7:23:11
1:-1
6:23:11
1:1
6:22:12
1:0
0:21:12
-1:0
7:24:11
1:1
8:24:12
2:0
7:21:12
1:0
3:25:12
0:0
8:22:12
2:0
7:22:12
1:0
7:23:12
1:1
6:23:12
1:0
7:21:12
1:-1
8:22:12
2:-1
7:22:12
1:0
4:24:12
1:0
8:22:12
2:0
7:22:12
1:0
8:23:12
2:0
4:23:12
1:0
0:22:12
-1:0
8:24:11
2:1
7:23:12
1:-1
7:20:12
1:0
8:21:12
2:-1
7:23:12
1:0
8:23:12
2:0
7:22:12
1:0
0:22:12
-1:0
7:23:11
1:1
7:22:12
1:-1
6:22:12
1:0
6:24:12
1:1
7:22:12
1:1
8:21:12
2:0
6:23:12
1:0
3:23:12
0:0
8:22:12
2:0
7:23:12
1:0
6:23:12
1:0
7:22:12
1:0
7:22:12
1:1
5:21:12
1:0
7:24:12
1:0
7:22:12
1:0
7:22:12
1:1
7:22:12
1:0
7:22:12
1:0
3:22:12
0:0
7:23:12
1:1
8:23:12
2:-1
7:23:12
1:0
4:22:12
1:0
8:22:12
2:0
3:23:12
0:0
7:21:12
1:0
6:22:12
1:0
7:21:12
1:0
8:23:12
2:-1
7:22:12
1:0
4:24:12
1:0
8:22:12
2:0
7:22:12
1:0
7:21:12
1:0
6:23:12
1:0
7:23:12
1:1
7:22:12
1:-1
8:23:12
2:0
5:23:12
1:0
8:22:12
2:0
7:23:12
1:0
2:23:12
0:0
6:22:12
1:0
0:21:12
-1:-1
8:22:11
2:1
6:23:12
1:0
5:23:12
1:0
2:23:12
0:0
7:21:12
1:0
9:22:12
2:-1
7:22:12
1:0
0:22:12
-1:0
8:23:11
2:1
7:23:12
1:-1
6:22:12
1:0
6:23:12
1:0
7:22:12
1:1
7:22:12
1:0
7:21:12
1:0
6:24:12
1:1
8:22:12
2:1
6:22:12
1:0
5:23:12
1:0
6:21:12
1:0
7:22:12
1:1
8:21:12
2:0
5:22:12
1:0
0:21:12
-1:0
7:37:11
1:-1
6:21:11
1:-1
3:22:11
0:1
7:22:12
1:1
8:23:12
2:-1
7:23:12
1:0
4:22:12
1:0
8:22:12
2:0
7:23:12
1:0
7:23:12
1:1
5:24:12
1:0
0:21:12
-1:0
7:23:11
1:1
6:22:12
1:-1
6:24:12
1:1
2:23:12
0:0
7:23:12
1:1
7:21:12
1:0
6:23:12
1:-1
3:23:12
0:0
7:24:12
1:1
5:24:12
1:-1
8:22:12
2:0
7:22:12
1:0
0:22:12
-1:0
8:24:11
2:-1
7:23:11
1:1
6:22:12
1:0
6:23:12
1:0
7:22:12
1:1
7:23:12
1:0
7:24:12
1:0
3:22:12
0:0
8:22:12
2:1
7:22:12
1:-1
6:24:12
1:1
4:23:12
1:0
0:22:12
-1:0
6:21:11
1:0
6:23:12
1:0
6:22:12
1:0
7:22:12
1:1
7:23:12
1:0
8:22:12
2:0
7:22:12
1:0
0:22:12
-1:0
7:24:11
1:1
6:25:12
1:-1
6:20:12
1:0
5:25:12
1:1
7:22:12
1:1
8:21:12
2:0
6:23:12
1:-1
1:22:12
-1:0
3:22:11
0:1
6:21:12
1:0
6:23:12
1:0
0:21:12
-1:0
7:23:11
1:1
7:22:12
1:-1
6:24:12
1:0
2:22:12
0:0
7:22:12
1:1
7:23:12
1:-1
7:23:12
1:1
3:22:12
0:0
7:22:12
1:1
7:23:12
1:-1
7:22:12
1:0
7:23:12
1:1
7:23:12
1:1
7:22:12
1:0
4:23:12
1:0
6:23:12
1:0
7:22:12
1:1
8:23:12
2:0
7:24:12
1:-1
6:22:12
1:0
0:22:12
-1:0
7:22:11
1:-1
7:22:11
1:1
6:23:12
1:0
0:20:12
-1:0
7:23:11
1:1
6:22:12
1:0
7:23:12
1:-1
2:23:12
0:0
7:23:12
1:1
7:22:12
1:0
7:22:12
1:0
7:23:12
1:1
7:22:12
1:-1
7:23:12
1:-1
7:23:12
1:0
6:23:12
1:0
7:22:12
1:1
7:22:12
1:0
7:22:12
1:-1
4:23:12
1:0
2:22:12
0:0
7:22:12
1:-1
8:23:12
2:0
6:23:12
1:0
7:22:12
1:0
8:23:12
2:1
7:25:12
1:1
6:22:12
1:0
7:23:12
1:1
7:22:12
1:1
8:22:12
2:-1
6:22:12
1:0
2:21:12
0:0
7:22:12
1:1
7:23:12
1:-1
6:23:12
1:0
5:23:12
1:0
7:22:12
1:1
7:22:12
1:0
6:22:12
1:0
3:23:12
0:0
7:22:12
1:0
7:23:12
1:-1
7:22:12
1:0
6:23:12
1:0
7:22:12
1:1
7:23:12
1:0
8:24:12
2:0
4:22:12
1:0
8:22:12
2:0
7:24:12
1:1
8:24:12
2:0
7:22:12
1:0
2:21:12
0:0
2:22:12
0:0
7:23:12
1:-1
7:23:12
1:1
3:24:12
0:0
7:23:12
1:-1
7:22:12
1:0
3:21:12
0:0
6:24:12
1:1
7:22:12
1:0
7:22:12
1:-1
8:23:12
2:0
6:23:12
1:0
0:22:12
-1:0
7:37:11
1:-1
6:20:11
1:-1
7:22:11
1:0
7:22:12
1:1
3:24:12
0:0
7:22:12
1:0
3:22:12
0:0
7:22:12
1:1
7:21:12
1:-1
6:22:12
1:0
6:25:12
1:0
7:22:12
1:1
7:21:12
1:0
7:22:12
1:0
4:24:12
1:0
0:24:12
-1:1
7:23:12
1:1
6:22:12
1:0
4:21:12
1:0
7:22:12
1:1
7:24:12
1:1
6:22:12
1:0
6:22:12
1:0
0:21:12
-1:0
7:23:11
1:1
7:23:12
1:0
7:22:12
1:0
0:22:12
-1:0
7:22:11
1:1
7:21:12
1:0
4:21:12
1:0
7:22:12
1:1
7:23:12
1:-1
6:22:12
1:0
7:21:12
1:0
7:22:12
1:1
7:24:12
1:0
8:23:12
2:0
5:23:12
1:0
0:22:12
-1:-1
7:22:11
1:1
8:23:12
2:0
5:24:12
1:0
2:22:12
0:0
7:22:12
1:1
7:22:12
1:-1
7:25:12
1:1
3:24:12
0:0
0:23:12
-1:1
7:22:12
1:-1
7:21:12
1:0
4:23:12
1:0
5:22:12
1:0
7:23:12
1:-1
8:23:12
2:0
7:22:12
1:0
0:22:12
-1:0
7:24:11
1:1
7:23:12
1:-1
6:23:12
1:0
7:22:12
1:0
7:22:12
1:-1
7:22:12
1:0
6:22:12
1:0
2:23:12
0:0
7:23:12
1:1
7:20:12
1:0
6:22:12
1:-1
7:22:12
1:0
7:22:12
1:1
7:23:12
1:0
7:21:12
1:0
7:20:12
1:0
8:23:12
2:0
6:23:12
1:0
5:23:12
1:0
7:24:12
1:0
7:22:12
1:1
7:22:12
1:0
4:22:12
1:0
3:24:12
0:0
7:23:12
1:1
7:21:12
1:0
6:22:12
1:0
6:22:12
1:0
3:22:12
0:0
2:23:12
0:0
7:22:12
1:0
6:23:12
1:0
7:21:12
1:0
7:22:12
1:-1
1:23:12
-1:0
7:21:11
1:1
7:22:12
1:1
7:22:12
1:0
6:24:12
1:1
6:22:12
1:0
0:22:12
-1:0
7:22:11
1:-1
6:22:11
1:0
7:21:12
1:0
7:22:12
1:1
7:23:12
1:0
7:23:12
1:1
3:23:12
0:-1
7:22:12
1:1
7:23:12
1:-1
6:22:12
1:0
7:23:12
1:1
7:22:12
1:1
7:23:12
1:-1
7:23:12
1:1
6:23:12
1:0
0:23:12
-1:1
7:22:12
1:1
8:23:12
2:0
6:23:12
1:0
6:22:12
1:0
7:21:12
1:0
6:22:12
1:-1
6:23:12
1:0
0:21:12
-1:0
6:22:11
1:1
6:23:12
1:0
7:21:12
1:0
7:22:12
1:1
7:23:12
1:0
6:23:12
1:0
4:22:12
1:0
8:21:12
2:1
7:24:12
1:1
7:23:12
1:0
7:23:12
1:1
2:22:12
0:0
3:21:12
0:0
7:23:12
1:1
6:22:12
1:0
1:22:12
-1:0
7:22:11
1:0
6:22:12
1:0
1:21:12
-1:0
0:22:11
-1:1
7:25:11
1:-1
7:23:11
1:1
6:22:12
1:0
7:22:12
1:0
1:22:12
-1:0
5:35:11
1:-1
4:23:11
1:1
7:23:12
1:1
7:24:12
1:1
7:22:12
1:0
7:21:12
1:0
0:22:12
-1:0
7:23:11
1:1
7:23:12
1:1
6:23:12
1:0
6:23:12
1:0
7:22:12
1:1
4:22:12
1:0
6:22:12
1:0
2:23:12
0:0
7:22:12
1:1
7:22:12
1:-1
6:22:12
1:0
2:22:12
0:0
7:24:12
1:1
7:22:12
1:0
7:23:12
1:1
3:22:12
0:0
7:22:12
1:1
2:23:12
0:-1
6:23:12
1:0
7:22:12
1:0
7:22:12
1:1
7:23:12
1:0
7:21:12
1:0
4:23:12
1:0
7:22:12
1:1
7:23:12
1:-1
6:22:12
1:0
6:22:12
1:0
4:23:12
1:1
7:22:12
1:-1
7:22:12
1:0
6:23:12
1:0
7:21:12
1:0
7:22:12
1:-1
6:22:12
1:0
6:24:12
1:1
7:22:12
1:-1
7:24:12
1:1
7:22:12
1:0
5:23:12
1:0
2:23:12
0:0
7:22:12
1:1
8:20:12
2:-1
6:23:12
1:0
0:21:12
-1:0
7:23:11
1:0
7:24:12
1:1
6:23:12
1:0
6:23:12
1:0
7:22:12
1:1
7:22:12
1:0
7:23:12
1:1
4:24:12
1:0
7:22:12
1:1
6:20:12
1:-1
7:23:12
1:0
6:23:12
1:0
8:22:12
2:1
7:23:12
1:0
6:15:12
1:-1
0:22:12
-1:0
7:22:11
1:1
7:21:12
1:0
6:23:12
1:0
7:22:12
1:1
7:21:12
1:0
3:21:12
0:0
6:23:12
1:0
8:22:12
2:1
7:23:12
1:0
6:23:12
1:0
4:23:12
1:0
0:22:12
-1:0
8:24:11
2:1
7:23:12
1:-1
7:23:12
1:1
2:21:12
0:0
7:22:12
1:1
7:23:12
1:-1
6:22:12
1:-1
6:24:12
1:1
7:22:12
1:1
7:22:12
1:0
7:21:12
1:0
6:23:12
1:0
7:23:12
1:-1
7:22:12
1:-1
6:22:12
1:0
6:22:12
1:0
7:22:12
1:1
7:22:12
1:0
6:22:12
1:0
6:22:12
1:0
8:21:12
2:1
7:22:12
1:0
6:24:12
1:0
7:24:12
1:0
6:22:12
1:0
7:21:12
1:0
6:23:12
1:0
7:21:12
1:0
7:23:12
1:1
7:24:12
1:1
7:23:12
1:0
7:22:12
1:0
7:22:12
1:1
7:23:12
1:0
7:23:12
1:1
5:23:12
1:0
4:21:12
1:0
8:23:12
2:1
6:23:12
1:0
6:24:12
1:1
2:23:12
0:0
7:21:12
1:0
3:21:12
0:0
5:22:12
1:0
0:22:12
-1:0
7:23:11
1:-1
8:22:11
2:-1
6:23:11
1:0
0:21:12
-1:0
7:22:11
1:1
7:23:12
1:0
6:22:12
1:0
0:21:12
-1:0
7:24:11
1:1
8:22:12
2:0
7:22:12
1:-1
6:24:12
1:1
7:22:12
1:1
7:22:12
1:0
6:22:12
1:0
1:22:12
-1:0
7:22:11
1:1
7:23:12
1:0
7:22:12
1:0
6:23:12
1:0
7:21:12
1:0
7:22:12
1:-1
1:26:12
-1:-1
7:26:11
1:-1
8:22:11
2:1
6:23:12
1:0
0:22:12
-1:0
7:22:11
1:0
6:22:12
1:0
6:22:12
1:-1
7:22:12
1:1
7:23:12
1:1
6:23:12
1:0
4:21:12
1:0
0:22:12
-1:0
7:23:11
1:1
8:24:12
2:0
5:22:12
1:0
0:20:12
-1:0
7:22:11
1:1
6:22:12
1:0
4:21:12
1:0
7:23:12
1:1
7:24:12
1:1
7:21:12
1:0
7:22:12
1:0
7:22:12
1:1
4:24:12
1:0
7:22:12
1:0
7:21:12
1:0
0:22:12
-1:0
7:23:11
1:1
7:23:12
1:1
6:24:12
1:0
7:22:12
1:0
8:22:12
2:0
7:22:12
1:-1
6:24:12
1:1
3:23:12
0:0
7:22:12
1:1
7:22:12
1:-1
6:23:12
1:0
3:22:12
0:0
8:23:12
2:1
7:24:12
1:-1
8:22:12
2:0
6:22:12
1:0
7:22:12
1:1
8:24:12
2:1
7:24:12
1:1
6:25:12
1:0
1:18:12
-1:0
7:22:11
1:1
8:21:12
2:0
6:23:12
1:0
0:21:12
-1:0
8:22:11
2:1
6:22:12
1:-1
6:22:12
1:-1
0:22:12
-1:0
7:24:11
1:1
7:22:12
1:0
6:23:12
1:0
1:21:12
-1:0
8:21:11
2:1
6:23:12
1:0
7:23:12
1:1
2:23:12
0:0
7:22:12
1:1
7:23:12
1:-1
7:22:12
1:0
7:23:12
1:1
7:22:12
1:1
7:24:12
1:0
7:22:12
1:0
6:23:12
1:0
7:22:12
1:0
7:22:12
1:0
6:21:12
1:0
6:22:12
1:0
7:22:12
1:0
7:22:12
1:-1
4:21:12
1:0
6:23:12
1:0
7:22:12
1:1
7:21:12
1:0
6:24:12
1:0
2:22:12
0:0
3:22:12
0:0
2:23:12
0:0
6:23:12
1:0
7:22:12
1:0
7:22:12
1:1
8:21:12
2:0
1:23:12
-1:0
3:23:11
0:1
8:22:12
2:0
7:22:12
1:0
6:22:12
1:0
7:22:12
1:0
0:22:12
-1:0
7:24:11
1:-1
7:23:11
1:1
4:22:12
1:0
8:22:12
2:0
7:23:12
1:0
7:21:12
1:0
6:23:12
1:-1
7:21:12
1:0
8:22:12
2:-1
7:22:12
1:0
4:24:12
1:0
7:22:12
1:0
7:22:12
1:-1
7:21:12
1:0
6:23:12
1:0
7:22:12
1:1
8:23:12
2:0
6:23:12
1:0
6:22:12
1:0
3:21:12
0:0
7:22:12
1:-1
8:24:12
2:0
6:22:12
1:0
7:22:12
1:1
5:22:12
1:0
6:22:12
1:0
7:23:12
1:1
7:23:12
1:1
7:23:12
1:0
8:22:12
2:0
4:21:12
1:0
7:23:12
1:1
8:24:12
2:0
7:23:12
1:-1
6:22:12
1:0
6:23:12
1:0
4:22:12
1:0
7:21:12
1:0
6:23:12
1:0
0:21:12
-1:0
7:22:11
1:0
6:22:12
1:-1
2:24:12
0:0
2:23:12
0:0
7:22:12
1:1
8:22:12
2:-1
6:23:12
1:0
6:22:12
1:0
2:23:12
0:0
5:35:12
1:-1
7:21:12
1:0
7:22:12
1:1
7:24:12
1:0
7:21:12
1:0
4:23:12
1:0
4:22:12
1:0
7:23:12
1:0
6:22:12
1:0
5:24:12
1:0
7:21:12
1:0
7:23:12
1:0
3:22:12
0:-1
6:24:12
1:1
2:23:12
0:0
7:21:12
1:0
7:23:12
1:0
7:21:12
1:0
0:21:12
-1:0
7:24:11
1:1
7:23:12
1:-1
6:22:12
1:0
2:22:12
0:0
7:21:12
1:0
1:24:12
-1:0
6:22:11
1:1
6:23:12
1:0
7:21:12
1:0
7:22:12
1:-1
6:22:12
1:0
6:24:12
1:1
Heartbeat CPU 0 instructions: 10000003 cycles: 4165330 heartbeat IPC: 2.40077 cumulative IPC: 2.35395 (Simulation time: 0 hr 0 min 21 sec) 
7:22:12
1:-1
7:22:12
1:0
7:21:12
1:0
1:22:12
-1:0
2:22:11
0:0
7:23:11
1:-1
6:23:11
1:0
7:22:12
1:0
7:22:12
1:1
7:22:12
1:0
6:24:12
1:1
3:23:12
0:0
7:22:12
1:1
7:22:12
1:-1
6:23:12
1:0
7:23:12
1:1
7:22:12
1:1
7:24:12
1:0
6:24:12
1:-1
6:22:12
1:0
7:22:12
1:1
7:24:12
1:1
8:23:12
2:0
7:22:12
1:0
6:23:12
1:0
7:23:12
1:1
7:22:12
1:-1
7:24:12
1:0
2:21:12
0:0
7:21:12
1:0
8:21:12
2:0
6:23:12
1:0
2:23:12
0:0
7:23:12
1:1
7:21:12
1:0
6:23:12
1:0
2:22:12
0:0
7:22:12
1:1
8:22:12
2:-1
6:23:12
1:0
2:21:12
0:0
7:22:12
1:1
6:24:12
1:-1
6:22:12
1:0
7:22:12
1:0
7:22:12
1:1
7:23:12
1:0
7:21:12
1:0
2:22:12
0:0
8:22:12
2:1
7:24:12
1:-1
6:21:12
1:0
6:23:12
1:0
7:23:12
1:1
8:22:12
2:-1
7:22:12
1:0
6:23:12
1:0
7:21:12
1:0
7:22:12
1:-1
6:22:12
1:0
6:22:12
1:0
7:22:12
1:-1
8:21:12
2:0
6:23:12
1:0
6:22:12
1:0
8:21:12
2:1
6:22:12
1:0
5:23:12
1:0
0:21:12
-1:0
7:22:11
1:1
6:23:12
1:0
7:23:12
1:1
0:21:12
-1:0
4:23:11
1:0
7:24:12
1:1
6:22:12
1:0
7:22:12
1:1
7:23:12
1:1
8:22:12
2:0
3:22:12
0:0
2:22:12
0:0
7:22:12
1:1
7:22:12
1:-1
6:23:12
1:0
6:23:12
1:0
2:22:12
0:0
7:22:12
1:0
7:21:12
1:0
3:24:12
0:0
7:22:12
1:1
7:22:12
1:-1
6:22:12
1:0
7:22:12
1:0
7:23:12
1:1
8:22:12
2:-1
6:23:12
1:0
3:23:12
0:0
7:22:12
1:1
7:22:12
1:-1
8:24:12
2:0
4:23:12
1:0
7:21:12
1:0
7:22:12
1:0
7:22:12
1:0
4:23:12
1:-1
7:22:12
1:1
7:24:12
1:-1
3:22:12
0:0
4:21:12
1:0
7:21:12
1:0
7:24:12
1:-1
7:22:12
1:0
4:22:12
1:0
7:22:12
1:1
7:22:12
1:-1
8:23:12
2:0
2:36:12
0:0
0:21:12
-1:0
7:25:11
1:0
6:22:12
1:0
7:22:12
1:0
7:22:12
1:1
7:22:12
1:0
7:22:12
1:0
7:21:12
1:0
7:22:12
1:0
7:23:12
1:-1
6:22:12
1:0
6:24:12
1:1
7:22:12
1:-1
7:23:12
1:0
7:22:12
1:0
6:23:12
1:0
7:21:12
1:0
7:22:12
1:-1
6:22:12
1:0
3:23:12
0:0
7:21:12
1:0
7:22:12
1:0
6:23:12
1:0
2:22:12
0:0
7:22:12
1:1
7:22:12
1:-1
6:22:12
1:0
7:22:12
1:0
7:22:12
1:1
7:23:12
1:0
3:23:12
0:0
3:23:12
0:0
7:22:12
1:1
7:24:12
1:-1
7:22:12
1:0
6:22:12
1:-1
3:22:12
0:0
7:23:12
1:0
7:21:12
1:0
3:21:12
0:0
7:23:12
1:1
7:24:12
1:1
7:21:12
1:0
6:23:12
1:0
7:23:12
1:1
7:23:12
1:-1
7:22:12
1:0
6:23:12
1:1
0:21:12
-1:0
8:24:11
2:-1
6:22:11
1:-1
6:24:11
1:1
2:23:12
0:0
7:22:12
1:1
0:23:12
-1:-1
6:22:11
1:-1
7:23:11
1:1
7:22:12
1:1
7:24:12
1:0
7:22:12
1:0
3:21:12
0:0
7:22:12
1:1
7:24:12
1:-1
6:23:12
1:0
4:23:12
1:0
8:20:12
2:0
7:23:12
1:0
7:21:12
1:-1
4:24:12
1:0
6:22:12
1:0
7:22:12
1:-1
6:22:12
1:0
7:23:12
1:1
7:23:12
1:-1
7:23:12
1:0
6:23:12
1:0
6:22:12
1:0
0:21:12
-1:0
7:24:11
1:1
8:22:12
2:-1
7:24:12
1:0
6:22:12
1:0
8:21:12
2:1
7:23:12
1:0
6:23:12
1:0
3:24:12
0:0
7:21:12
1:0
7:23:12
1:0
7:22:12
1:0
0:23:12
-1:0
7:24:11
1:1
6:21:12
1:0
6:22:12
1:0
6:22:12
1:0
7:22:12
1:1
7:23:12
1:0
6:23:12
1:0
4:22:12
1:0
7:21:12
1:0
7:22:12
1:-1
6:23:12
1:0
7:21:12
1:0
7:22:12
1:1
2:22:12
0:0
6:22:12
1:0
2:21:12
0:0
7:23:12
1:1
7:22:12
1:0
6:23:12
1:0
0:22:12
-1:0
7:22:11
1:-1
7:23:11
1:1
6:22:12
1:0
3:22:12
0:0
7:22:12
1:1
7:23:12
1:-1
7:23:12
1:-1
6:23:12
1:0
7:23:12
1:1
7:22:12
1:-1
7:22:12
1:0
4:22:12
1:0
7:22:12
1:1
7:22:12
1:-1
7:23:12
1:0
6:23:12
1:0
7:22:12
1:1
7:23:12
1:0
6:23:12
1:0
5:23:12
1:0
7:22:12
1:0
7:22:12
1:1
7:23:12
1:0
5:22:12
1:0
0:20:12
-1:0
7:23:11
1:1
7:23:12
1:-1
7:21:12
1:0
6:23:12
1:0
7:23:12
1:1
8:22:12
2:-1
7:22:12
1:0
6:23:12
1:0
7:21:12
1:0
7:22:12
1:-1
6:23:12
1:0
0:25:12
-1:0
8:35:11
2:-1
6:23:11
1:1
5:23:12
1:0
1:21:12
-1:0
7:21:11
1:0
6:23:12
1:0
4:22:12
1:-1
7:21:12
1:0
7:24:12
1:0
7:22:12
1:0
6:22:12
1:0
0:22:12
-1:0
7:24:11
1:1
8:23:12
2:0
7:22:12
1:0
6:23:12
1:0
7:22:12
1:1
7:23:12
1:1
7:24:12
1:0
7:22:12
1:0
7:22:12
1:1
7:22:12
1:0
6:22:12
1:0
6:22:12
1:0
5:22:12
1:0
7:21:12
1:0
6:22:12
1:0
1:21:12
-1:0
8:23:11
2:1
7:24:12
1:-1
6:22:12
1:0
6:22:12
1:0
7:21:12
1:0
7:23:12
1:-1
6:24:12
1:1
3:22:12
0:0
2:21:12
0:0
7:23:12
1:0
7:20:12
1:0
6:24:12
1:0
7:23:12
1:1
8:22:12
2:-1
0:22:12
-1:0
6:22:11
1:-1
7:22:11
1:1
7:23:12
1:0
6:23:12
1:0
6:23:12
1:0
7:22:12
1:1
7:20:12
1:-1
6:23:12
1:0
7:23:12
1:1
5:22:12
1:0
7:22:12
1:-1
6:22:12
1:0
2:21:12
0:-1
7:22:12
1:-1
7:22:12
1:-1
7:24:12
1:0
7:22:12
1:0
7:22:12
1:1
6:23:12
1:0
7:23:12
1:1
4:23:12
1:0
7:22:12
1:1
7:23:12
1:-1
6:22:12
1:0
6:23:12
1:0
0:22:12
-1:0
4:24:11
1:0
7:22:12
1:-1
6:23:12
1:0
7:23:12
1:1
6:22:12
1:0
7:23:12
1:0
6:23:12
1:0
6:22:12
1:0
7:23:12
1:1
8:22:12
2:-1
5:23:12
1:0
7:21:12
1:0
7:22:12
1:1
7:23:12
1:0
6:22:12
1:0
3:22:12
0:0
7:22:12
1:1
7:23:12
1:-1
6:22:12
1:0
3:22:12
0:0
8:23:12
2:1
7:23:12
1:-1
3:23:12
0:0
6:23:12
1:0
7:21:12
1:0
7:22:12
1:-1
6:24:12
1:1
6:24:12
1:1
2:22:12
0:0
7:21:12
1:0
7:22:12
1:-1
6:24:12
1:0
1:21:12
-1:0
7:22:11
1:1
0:22:12
-1:0
7:21:11
1:-1
0:22:11
-1:1
7:24:11
1:1
7:24:12
1:1
6:22:12
1:0
3:23:12
0:0
7:22:12
1:0
7:23:12
1:0
7:21:12
1:0
6:23:12
1:0
7:22:12
1:1
7:21:12
1:0
6:22:12
1:-1
6:24:12
1:1
7:22:12
1:1
7:22:12
1:0
7:21:12
1:0
0:20:12
-1:0
7:24:11
1:1
7:22:12
1:-1
5:24:12
1:0
7:22:12
1:0
7:22:12
1:1
7:22:12
1:0
5:22:12
1:0
2:23:12
0:0
7:22:12
1:1
7:22:12
1:-1
6:22:12
1:0
7:22:12
1:0
4:22:12
1:0
7:24:12
1:0
7:22:12
1:0
3:23:12
0:0
7:23:12
1:-1
7:22:12
1:0
6:21:12
1:0
7:22:12
1:0
7:22:12
1:1
7:22:12
1:0
7:22:12
1:0
6:25:12
1:1
2:22:12
0:0
Finished CPU 0 instructions: 10000000 cycles: 4248095 cumulative IPC: 2.354 (Simulation time: 0 hr 0 min 23 sec) 

CPU 0 Branch Prediction Accuracy: 99.6971% MPKI: 0.3135 Average ROB Occupancy at Mispredict: 346.69

ChampSim completed all CPUs

Region of Interest Statistics

CPU 0 cumulative IPC: 2.354 instructions: 10000000 cycles: 4248095
L1D TOTAL     ACCESS:     958418  HIT:     866143  MISS:      92275
L1D LOAD      ACCESS:     543088  HIT:     495010  MISS:      48078
L1D RFO       ACCESS:        477  HIT:        418  MISS:         59
L1D PREFETCH  ACCESS:     414853  HIT:     370715  MISS:      44138
L1D WRITEBACK ACCESS:          0  HIT:          0  MISS:          0
L1D PREFETCH  REQUESTED:     517331  ISSUED:     509502  USEFUL:      45069  USELESS:       3589
L1D AVERAGE MISS LATENCY: 15750.6 cycles
L1I TOTAL     ACCESS:    2177777  HIT:    2177777  MISS:          0
L1I LOAD      ACCESS:    2177777  HIT:    2177777  MISS:          0
L1I RFO       ACCESS:          0  HIT:          0  MISS:          0
L1I PREFETCH  ACCESS:          0  HIT:          0  MISS:          0
L1I WRITEBACK ACCESS:          0  HIT:          0  MISS:          0
L1I PREFETCH  REQUESTED:          0  ISSUED:          0  USEFUL:          0  USELESS:          0
L1I AVERAGE MISS LATENCY: -nan cycles
L2C TOTAL     ACCESS:     217776  HIT:     216748  MISS:       1028
L2C LOAD      ACCESS:      47485  HIT:      47479  MISS:          6
L2C RFO       ACCESS:         59  HIT:         59  MISS:          0
L2C PREFETCH  ACCESS:     170117  HIT:     169095  MISS:       1022
L2C WRITEBACK ACCESS:        115  HIT:        115  MISS:          0
L2C PREFETCH  REQUESTED:     144125  ISSUED:     142585  USEFUL:       1204  USELESS:         22
L2C AVERAGE MISS LATENCY: 187.469 cycles
LLC TOTAL     ACCESS:       1028  HIT:         19  MISS:       1009
LLC LOAD      ACCESS:          6  HIT:          0  MISS:          6
LLC RFO       ACCESS:          0  HIT:          0  MISS:          0
LLC PREFETCH  ACCESS:       1022  HIT:         19  MISS:       1003
LLC WRITEBACK ACCESS:          0  HIT:          0  MISS:          0
LLC PREFETCH  REQUESTED:          0  ISSUED:          0  USEFUL:          0  USELESS:          0
LLC AVERAGE MISS LATENCY: 160.434 cycles
Major fault: 0 Minor fault: 174
CPU 0 L2C next line prefetcher final stats

DRAM Statistics
 CHANNEL 0
 RQ ROW_BUFFER_HIT:        270  ROW_BUFFER_MISS:        739
 DBUS_CONGESTED:        646
 WQ ROW_BUFFER_HIT:          0  ROW_BUFFER_MISS:          0  FULL:          0

 AVG_CONGESTED_CYCLE: 6
