
*** ChampSim Multicore Out-of-Order Simulator ***

Warmup Instructions: 1000000
Simulation Instructions: 10000000
Number of CPUs: 1
LLC sets: 2048
LLC ways: 16
Off-chip DRAM Size: 4096 MB Channels: 1 Width: 64-bit Data Rate: 3200 MT/s

CPU 0 runs /home/light/7th-Sem/cs622/project/ChampSim/dpc3_traces/641.leela_s-800B.champsimtrace.xz
4:21:4
1:-1
0:14:4
-1:-1
2:10:3
0:-1
1:3:3
-1:0
4:4:2
1:0
1:6:3
-1:-1
0:1:2
-1:-1
0:1:1
-1:-1
0:0:1
-1:-1
6:5:1
1:-1
3:5:1
0:1
11:8:2
2:1
0:5:4
-1:1
15:5:4
2:0
15:5:5
2:1
1:10:7
-1:1
4:1:7
1:-1
0:6:7
-1:1
3:7:7
0:-1
7:21:7
1:0
15:42:8
2:1
14:41:10
2:0
1:39:11
-1:1
0:16:11
-1:-1
1:22:10
-1:-1
1:16:9
-1:-1
0:21:8
-1:0
2:22:7
0:-1
1:33:7
-1:-1
0:24:6
-1:-1
2:17:5
0:-1
0:17:5
-1:-1
1:10:4
-1:-1
0:7:3
-1:-1
15:53:2
2:-1
15:56:2
2:1
7:44:4
1:1
4:43:5
1:1
12:44:6
2:1
4:33:8
1:1
2:9:9
0:-1
0:15:9
-1:-1
1:23:8
-1:-1
3:21:7
0:-1
0:11:7
-1:-1
0:0:6
-1:-1
2:7:5
0:-1
0:0:5
-1:-1
2:0:4
0:-1
0:0:4
-1:-1
0:1:3
-1:-1
0:4:2
-1:1
0:1:2
-1:-1
0:1:1
-1:-1
0:1:1
-1:1
0:1:1
-1:-1
1:0:1
-1:-1
1:2:1
-1:-1
1:2:1
-1:-1
0:3:1
-1:-1
0:1:1
-1:-1
0:5:1
-1:1
0:6:1
-1:-1
0:1:1
-1:-1
1:0:1
-1:-1
0:0:1
-1:-1
0:1:1
-1:-1
0:0:1
-1:-1
1:1:1
-1:-1
0:0:1
-1:-1
0:1:1
-1:-1
0:1:1
-1:-1
0:3:1
-1:-1
0:5:1
-1:-1
0:0:1
-1:-1
0:2:1
-1:-1
0:4:1
-1:-1
1:1:1
-1:-1
2:2:1
0:-1
1:2:1
-1:-1
0:0:1
-1:-1
0:0:1
-1:-1
2:0:1
0:-1
3:0:1
0:-1
0:1:1
-1:-1
0:0:1
-1:-1
3:1:1
0:-1
0:0:1
-1:-1
0:1:1
-1:-1
0:3:1
-1:-1
0:0:1
-1:-1
0:2:1
-1:-1
1:2:1
-1:-1
0:1:1
-1:-1
0:2:1
-1:-1
0:0:1
-1:-1
2:1:1
0:-1
0:1:1
-1:-1
0:1:1
-1:-1
1:1:1
-1:-1
0:0:1
-1:-1
0:0:1
-1:-1
0:0:1
-1:-1
2:1:1
0:-1
0:0:1
-1:-1
0:1:1
-1:-1
0:12:1
-1:1
0:3:1
-1:-1
0:1:1
-1:-1
0:0:1
-1:-1
0:0:1
-1:-1
0:1:1
-1:1
0:1:1
-1:-1
2:3:1
0:-1
2:3:1
0:-1
0:1:1
-1:-1
0:2:1
-1:-1
2:1:1
0:-1
0:0:1
-1:-1
0:0:1
-1:-1
2:0:1
0:-1
0:4:1
-1:-1
0:2:1
-1:-1
0:2:1
-1:-1
1:0:1
-1:-1
2:1:1
0:-1
0:1:1
-1:-1
0:0:1
-1:-1
0:0:1
-1:-1
0:0:1
-1:-1
0:0:1
-1:-1
0:0:1
-1:-1
0:0:1
-1:-1
0:3:1
-1:-1
0:2:1
-1:-1
0:4:1
-1:1
0:0:1
-1:-1
1:2:1
-1:-1
5:2:1
1:-1
0:3:1
-1:1
0:1:1
-1:-1
0:0:1
-1:-1
2:3:1
0:-1
0:3:1
-1:-1
2:6:1
0:-1
0:1:1
-1:-1
0:1:1
-1:-1
0:5:1
-1:-1
2:2:1
0:-1
2:0:1
0:-1
0:0:1
-1:-1
0:2:1
-1:-1
0:0:1
-1:-1
1:0:1
-1:-1
0:0:1
-1:-1
0:1:1
-1:-1
0:1:1
-1:-1
0:2:1
-1:-1
0:4:1
-1:-1
0:2:1
-1:-1
0:1:1
-1:-1
0:1:1
-1:-1
0:1:1
-1:1
0:1:1
-1:-1
0:2:1
-1:-1
2:2:1
0:-1
2:3:1
0:-1
0:4:1
-1:1
1:1:1
-1:-1
0:0:1
-1:-1
0:1:1
-1:-1
0:0:1
-1:-1
0:1:1
-1:-1
0:1:1
-1:-1
0:3:1
-1:1
0:1:1
-1:-1
0:1:1
-1:-1
0:0:1
-1:-1
0:1:1
-1:-1
0:2:1
-1:-1
2:0:1
0:-1
0:0:1
-1:-1
0:2:1
-1:-1
0:1:1
-1:-1
0:3:1
-1:-1
0:0:1
-1:-1
1:1:1
-1:-1
0:1:1
-1:-1
0:1:1
-1:-1
2:3:1
0:-1
0:1:1
-1:-1
0:2:1
-1:1
2:1:1
0:-1
0:3:1
-1:1
0:3:1
-1:-1
2:1:1
0:-1
0:2:1
-1:1
0:2:1
-1:-1
3:1:1
0:-1
0:4:1
-1:1
0:1:1
-1:1
0:4:1
-1:-1
0:3:1
-1:1
0:3:1
-1:-1
0:1:1
-1:-1
0:0:1
-1:-1
0:0:1
-1:-1
0:0:1
-1:-1
0:0:1
-1:-1
0:0:1
-1:-1
0:0:1
-1:-1
0:1:1
-1:-1
0:0:1
-1:-1
0:1:1
-1:-1
0:0:1
-1:-1
2:2:1
0:-1
0:2:1
-1:1
0:5:1
-1:-1
0:0:1
-1:-1
0:0:1
-1:-1
0:2:1
-1:-1
0:1:1
-1:-1
0:3:1
-1:-1
0:1:1
-1:1
0:0:1
-1:-1
0:1:1
-1:1
0:2:1
-1:-1
0:1:1
-1:-1
0:1:1
-1:1
0:0:1
-1:-1
0:5:1
-1:-1
2:0:1
0:-1
0:2:1
-1:-1
0:0:1
-1:-1
1:1:1
-1:-1
0:2:1
-1:-1
0:0:1
-1:-1
0:0:1
-1:-1
2:2:1
0:-1
0:1:1
-1:-1
0:2:1
-1:-1
0:1:1
-1:-1
0:3:1
-1:-1
0:0:1
-1:-1
0:1:1
-1:-1
0:2:1
-1:-1
0:3:1
-1:-1
0:1:1
-1:-1
0:0:1
-1:-1
0:1:1
-1:1
0:1:1
-1:1
0:2:1
-1:-1
0:1:1
-1:-1
1:3:1
-1:-1
0:1:1
-1:-1
0:0:1
-1:-1
0:2:1
-1:-1
1:3:1
-1:-1
0:1:1
-1:-1
0:1:1
-1:-1
0:1:1
-1:-1
1:1:1
-1:-1
2:0:1
0:-1
0:0:1
-1:-1
0:0:1
-1:-1
0:0:1
-1:-1
0:2:1
-1:-1
0:0:1
-1:-1
0:1:1
-1:-1
0:2:1
-1:1
0:0:1
-1:-1
0:0:1
-1:-1
0:1:1
-1:1
0:0:1
-1:-1
0:1:1
-1:-1
0:1:1
-1:-1
2:2:1
0:-1
2:1:1
0:-1
0:2:1
-1:-1
3:1:1
0:-1
0:1:1
-1:-1
0:0:1
-1:-1
0:1:1
-1:-1
0:5:1
-1:1
0:4:1
-1:-1
0:2:1
-1:-1
2:0:1
0:-1
0:0:1
-1:-1
0:1:1
-1:-1
0:2:1
-1:-1
0:3:1
-1:-1
0:1:1
-1:-1
0:0:1
-1:-1
0:1:1
-1:-1
0:1:1
-1:-1
0:2:1
-1:-1
0:0:1
-1:-1
0:1:1
-1:-1
0:1:1
-1:-1
0:3:1
-1:-1
0:0:1
-1:-1
0:2:1
-1:1
4:0:1
1:-1
0:1:1
-1:-1
0:2:1
-1:1
0:3:1
-1:-1
0:0:1
-1:-1
0:0:1
-1:-1
0:1:1
-1:-1
0:1:1
-1:1
0:0:1
-1:-1
0:4:1
-1:-1
0:2:1
-1:-1
0:4:1
-1:1
0:2:1
-1:-1
2:0:1
0:-1
0:1:1
-1:-1
0:2:1
-1:1
0:2:1
-1:-1
0:1:1
-1:-1
1:1:1
-1:-1
0:1:1
-1:-1
0:1:1
-1:-1
0:0:1
-1:-1
0:2:1
-1:-1
0:5:1
-1:1
2:1:1
0:-1
1:1:1
-1:-1
0:3:1
-1:-1
0:0:1
-1:-1
0:1:1
-1:-1
0:8:1
-1:1
1:3:1
-1:1
0:1:1
-1:-1
0:0:1
-1:-1
0:2:1
-1:-1
0:0:1
-1:-1
0:1:1
-1:-1
0:1:1
-1:-1
0:2:1
-1:1
0:0:1
-1:-1
0:1:1
-1:-1
0:1:1
-1:-1
1:1:1
-1:1
0:0:1
-1:-1
0:1:1
-1:-1
0:2:1
-1:-1
0:2:1
-1:1
0:1:1
-1:-1
0:2:1
-1:-1
0:0:1
-1:-1
1:1:1
-1:-1
0:1:1
-1:-1
0:0:1
-1:-1
0:1:1
-1:-1
0:0:1
-1:-1
0:0:1
-1:-1
0:0:1
-1:-1
0:1:1
-1:-1
0:3:1
-1:1
0:2:1
-1:1
2:1:1
0:-1
0:2:1
-1:-1
0:1:1
-1:-1
0:2:1
-1:1
0:1:1
-1:-1
0:1:1
-1:-1
0:3:1
-1:-1
1:1:1
-1:1
0:1:1
-1:-1
12:12:1
2:-1
3:6:1
0:1
9:6:2
2:1
14:5:4
2:1
5:26:6
1:0
15:72:7
2:1
12:88:9
2:1
6:76:11
1:1
8:114:12
2:0
0:129:12
-1:-1
0:71:11
-1:-1
15:42:10
2:-1
15:42:10
2:1
12:45:12
2:1
0:27:12
-1:0
0:40:11
-1:-1
2:21:10
0:-1
4:18:10
1:-1
0:38:10
-1:-1
0:20:9
-1:-1
0:21:8
-1:-1
3:16:7
0:-1
0:7:7
-1:-1
0:7:6
-1:-1
0:0:5
-1:-1
11:0:4
2:-1
15:4:4
2:1
15:6:6
2:1
5:1:8
1:-1
0:15:8
-1:-1
2:15:7
0:0
0:14:7
-1:-1
2:8:6
0:-1
2:20:6
0:-1
0:13:6
-1:-1
3:11:5
0:-1
3:4:5
0:-1
0:5:5
-1:-1
0:8:4
-1:-1
1:6:3
-1:0
0:10:2
-1:-1
0:5:1
-1:1
1:8:1
-1:-1
1:10:1
-1:-1
1:8:1
-1:-1
0:1:1
-1:-1
1:4:1
-1:1
0:5:1
-1:-1
1:9:1
-1:1
0:6:1
-1:-1
0:2:1
-1:1
0:2:1
-1:-1
0:8:1
-1:-1
0:2:1
-1:1
0:1:1
-1:-1
1:5:1
-1:-1
0:9:1
-1:-1
0:8:1
-1:-1
0:2:1
-1:1
0:5:1
-1:1
0:4:1
-1:-1
0:6:1
-1:-1
0:0:1
-1:-1
2:4:1
0:-1
0:1:1
-1:-1
1:1:1
-1:-1
1:2:1
-1:-1
0:2:1
-1:-1
3:1:1
0:-1
1:4:1
-1:-1
0:6:1
-1:-1
0:2:1
-1:1
0:7:1
-1:1
2:6:1
0:1
2:9:2
0:-1
0:3:2
-1:-1
0:5:1
-1:1
0:6:1
-1:1
0:1:1
-1:-1
2:5:1
0:1
2:6:2
0:-1
0:2:2
-1:-1
0:3:1
-1:-1
0:2:1
-1:-1
0:1:1
-1:-1
0:5:1
-1:1
1:3:1
-1:-1
0:3:1
-1:1
0:2:1
-1:1
0:2:1
-1:1
0:10:1
-1:1
0:4:1
-1:-1
0:4:1
-1:1
0:5:1
-1:1
0:2:1
-1:1
0:3:1
-1:1
1:0:1
-1:-1
0:2:1
-1:-1
0:5:1
-1:-1
2:3:1
0:1
0:4:2
-1:0
1:3:1
-1:-1
1:5:1
-1:-1
0:6:1
-1:-1
2:4:1
0:1
0:2:2
-1:0
0:5:1
-1:1
2:4:1
0:1
0:1:2
-1:-1
0:1:1
-1:1
0:2:1
-1:-1
0:3:1
-1:1
0:1:1
-1:-1
0:4:1
-1:1
0:4:1
-1:-1
0:3:1
-1:1
1:1:1
-1:-1
1:4:1
-1:-1

Warmup complete CPU 0 instructions: 1000001 cycles: 958204 (Simulation time: 0 hr 0 min 3 sec) 

0:2:1
-1:-1
0:4:1
-1:1
0:2:1
-1:-1
0:4:1
-1:1
0:1:1
-1:-1
0:1:1
-1:1
0:2:1
-1:1
0:2:1
-1:1
0:5:1
-1:1
2:2:1
0:1
0:3:2
-1:-1
2:1:1
0:-1
0:1:1
-1:-1
0:2:1
-1:1
0:2:1
-1:1
0:2:1
-1:1
0:3:1
-1:-1
1:2:1
-1:-1
0:4:1
-1:1
0:2:1
-1:-1
1:1:1
-1:-1
0:2:1
-1:1
0:1:1
-1:1
0:3:1
-1:-1
0:1:1
-1:-1
2:0:1
0:-1
0:3:1
-1:-1
0:2:1
-1:1
0:2:1
-1:-1
0:4:1
-1:1
0:3:1
-1:1
0:1:1
-1:1
4:1:1
1:-1
0:1:1
-1:-1
0:1:1
-1:-1
0:2:1
-1:1
0:3:1
-1:1
0:1:1
-1:1
0:1:1
-1:-1
0:1:1
-1:-1
0:2:1
-1:1
2:2:1
0:1
4:4:2
1:-1
2:1:2
0:-1
0:2:2
-1:-1
0:2:1
-1:1
0:2:1
-1:1
0:1:1
-1:-1
0:1:1
-1:-1
0:2:1
-1:-1
0:1:1
-1:-1
0:2:1
-1:-1
0:2:1
-1:1
0:1:1
-1:-1
0:2:1
-1:1
2:3:1
0:1
0:0:2
-1:-1
0:1:1
-1:-1
0:2:1
-1:-1
0:3:1
-1:1
0:0:1
-1:-1
3:1:1
0:-1
0:1:1
-1:-1
0:2:1
-1:1
0:4:1
-1:1
0:2:1
-1:1
0:2:1
-1:1
0:2:1
-1:1
0:2:1
-1:1
2:1:1
0:-1
0:2:1
-1:-1
0:3:1
-1:1
0:2:1
-1:-1
0:2:1
-1:-1
1:1:1
-1:-1
0:0:1
-1:-1
0:0:1
-1:-1
1:0:1
-1:-1
2:1:1
0:-1
0:1:1
-1:-1
0:2:1
-1:1
0:2:1
-1:1
2:1:1
0:1
0:1:2
-1:-1
0:1:1
-1:-1
0:1:1
-1:-1
0:2:1
-1:1
0:1:1
-1:-1
1:0:1
-1:-1
0:1:1
-1:-1
0:0:1
-1:-1
0:2:1
-1:1
2:0:1
0:-1
0:1:1
-1:-1
1:2:1
-1:1
0:2:1
-1:-1
2:2:1
0:1
2:2:2
0:-1
4:5:2
1:-1
0:6:2
-1:-1
0:2:1
-1:1
0:1:1
-1:-1
0:0:1
-1:-1
0:3:1
-1:-1
0:2:1
-1:1
1:1:1
-1:1
0:1:1
-1:-1
1:2:1
-1:1
0:1:1
-1:-1
0:2:1
-1:-1
0:2:1
-1:1
3:1:1
0:-1
0:1:1
-1:-1
2:3:1
0:-1
0:1:1
-1:-1
0:1:1
-1:1
0:2:1
-1:1
0:3:1
-1:1
0:3:1
-1:1
2:1:1
0:-1
0:2:1
-1:1
0:2:1
-1:1
0:1:1
-1:-1
0:1:1
-1:1
0:3:1
-1:-1
0:2:1
-1:1
2:2:1
0:1
0:2:2
-1:-1
2:1:1
0:-1
0:1:1
-1:-1
2:1:1
0:1
3:2:2
0:-1
0:1:2
-1:-1
0:0:1
-1:-1
0:0:1
-1:-1
0:1:1
-1:-1
0:1:1
-1:-1
0:1:1
-1:-1
0:1:1
-1:1
0:1:1
-1:-1
2:3:1
0:-1
0:2:1
-1:-1
0:0:1
-1:-1
1:3:1
-1:1
0:2:1
-1:1
1:1:1
-1:-1
0:1:1
-1:-1
0:1:1
-1:-1
0:1:1
-1:-1
2:2:1
0:1
1:1:2
-1:-1
2:4:1
0:1
0:2:2
-1:0
2:2:1
0:-1
0:3:1
-1:-1
0:1:1
-1:-1
2:2:1
0:1
0:3:2
-1:-1
2:1:1
0:-1
0:1:1
-1:-1
0:1:1
-1:-1
0:1:1
-1:-1
2:1:1
0:-1
1:1:1
-1:-1
0:1:1
-1:-1
0:4:1
-1:1
1:1:1
-1:-1
0:1:1
-1:-1
1:4:1
-1:1
0:1:1
-1:-1
0:5:1
-1:1
0:1:1
-1:-1
0:3:1
-1:-1
0:1:1
-1:1
0:2:1
-1:1
0:2:1
-1:1
0:2:1
-1:-1
0:1:1
-1:-1
0:3:1
-1:-1
0:2:1
-1:-1
4:1:1
1:-1
0:3:1
-1:1
0:0:1
-1:-1
0:1:1
-1:-1
0:1:1
-1:-1
0:3:1
-1:1
0:1:1
-1:1
0:2:1
-1:-1
0:2:1
-1:1
0:2:1
-1:1
2:1:1
0:-1
0:1:1
-1:-1
0:1:1
-1:-1
0:2:1
-1:1
0:3:1
-1:1
2:1:1
0:-1
0:2:1
-1:-1
0:2:1
-1:-1
1:1:1
-1:-1
0:0:1
-1:-1
0:2:1
-1:1
2:4:1
0:1
1:2:2
-1:0
0:1:1
-1:1
2:3:1
0:-1
0:2:1
-1:1
0:2:1
-1:1
0:2:1
-1:1
2:2:1
0:-1
0:1:1
-1:-1
0:2:1
-1:1
0:1:1
-1:-1
3:2:1
0:1
0:1:2
-1:0
0:1:1
-1:-1
0:2:1
-1:-1
0:1:1
-1:-1
0:1:1
-1:-1
2:1:1
0:-1
0:1:1
-1:-1
2:2:1
0:1
1:2:2
-1:-1
2:2:1
0:-1
0:4:1
-1:1
0:2:1
-1:1
0:2:1
-1:1
0:1:1
-1:-1
2:2:1
0:1
0:2:2
-1:-1
0:0:1
-1:-1
0:2:1
-1:1
0:2:1
-1:1
0:1:1
-1:-1
0:1:1
-1:-1
2:2:1
0:-1
0:1:1
-1:-1
2:1:1
0:1
0:3:2
-1:-1
0:0:1
-1:-1
0:1:1
-1:-1
0:2:1
-1:1
1:1:1
-1:-1
0:1:1
-1:-1
0:1:1
-1:-1
0:2:1
-1:1
0:1:1
-1:-1
0:1:1
-1:-1
1:2:1
-1:1
2:1:1
0:-1
0:2:1
-1:1
2:2:1
0:1
2:1:2
0:-1
0:2:2
-1:-1
0:0:1
-1:-1
2:1:1
0:-1
0:1:1
-1:-1
0:2:1
-1:1
1:1:1
-1:1
0:1:1
-1:-1
0:1:1
-1:-1
0:2:1
-1:1
0:1:1
-1:1
0:1:1
-1:-1
0:0:1
-1:-1
2:1:1
0:-1
0:2:1
-1:1
0:2:1
-1:1
0:4:1
-1:1
0:1:1
-1:1
0:1:1
-1:-1
0:2:1
-1:1
0:1:1
-1:1
1:0:1
-1:-1
0:0:1
-1:-1
0:2:1
-1:-1
3:3:1
0:1
0:1:2
-1:-1
0:3:1
-1:-1
0:1:1
-1:-1
0:2:1
-1:1
0:1:1
-1:-1
2:16:1
0:1
0:6:2
-1:-1
0:2:1
-1:1
0:1:1
-1:-1
0:5:1
-1:1
0:2:1
-1:1
2:2:1
0:1
0:2:2
-1:0
2:1:1
0:-1
2:2:1
0:1
0:1:2
-1:-1
0:0:1
-1:-1
0:1:1
-1:-1
4:1:1
1:-1
0:1:1
-1:-1
1:1:1
-1:-1
0:4:1
-1:1
0:2:1
-1:1
0:2:1
-1:1
0:1:1
-1:-1
0:2:1
-1:1
2:4:1
0:1
2:2:2
0:0
0:0:2
-1:-1
0:0:1
-1:-1
0:1:1
-1:-1
0:1:1
-1:-1
0:2:1
-1:-1
0:2:1
-1:1
0:1:1
-1:-1
0:2:1
-1:1
0:2:1
-1:1
0:0:1
-1:-1
0:1:1
-1:-1
0:2:1
-1:1
0:2:1
-1:1
1:1:1
-1:-1
0:1:1
-1:-1
0:2:1
-1:1
0:2:1
-1:1
0:2:1
-1:1
0:1:1
-1:-1
0:1:1
-1:-1
0:1:1
-1:1
2:1:1
0:-1
0:1:1
-1:-1
0:1:1
-1:-1
2:2:1
0:1
1:4:2
-1:0
0:2:1
-1:1
0:1:1
-1:-1
0:1:1
-1:1
0:1:1
-1:-1
2:1:1
0:1
0:1:2
-1:-1
2:2:1
0:1
0:2:2
-1:0
0:4:1
-1:1
0:1:1
-1:1
0:2:1
-1:1
2:4:1
0:1
0:1:2
-1:0
0:0:1
-1:-1
0:0:1
-1:-1
3:1:1
0:-1
0:2:1
-1:1
0:0:1
-1:-1
0:1:1
-1:-1
0:1:1
-1:-1
0:3:1
-1:-1
4:8:1
1:-1
7:3:1
1:1
2:4:2
0:0
5:3:2
1:1
9:4:3
2:1
15:6:5
2:1
0:6:7
-1:0
8:16:6
2:-1
0:30:6
-1:1
2:24:6
0:-1
13:26:6
2:1
7:24:8
1:1
15:25:9
2:1
15:23:11
2:-1
0:26:11
-1:1
4:31:11
1:-1
0:16:11
-1:-1
3:22:10
0:-1
0:32:10
-1:1
4:37:10
1:-1
0:35:10
-1:-1
3:33:9
0:-1
6:30:9
1:0
1:31:10
-1:0
3:35:9
0:0
0:35:9
-1:-1
0:27:8
-1:-1
0:22:7
-1:-1
0:14:6
-1:-1
9:14:5
2:0
15:9:6
2:1
15:9:8
2:1
15:9:10
2:1
15:9:12
2:0
15:9:12
2:0
7:9:12
1:-1
15:9:12
2:0
15:9:12
2:0
15:9:12
2:0
15:9:12
2:0
15:9:12
2:0
12:12:12
2:0
8:8:12
2:-1
6:16:12
1:0
0:20:12
-1:-1
0:6:11
-1:-1
0:21:10
-1:-1
0:16:9
-1:-1
0:19:8
-1:-1
4:22:7
1:-1
1:21:7
-1:0
0:24:6
-1:-1
0:19:5
-1:-1
0:13:4
-1:0
0:6:3
-1:0
0:4:2
-1:-1
1:5:1
-1:1
0:2:1
-1:-1
10:11:1
2:-1
15:16:1
2:-1
1:21:1
-1:1
15:23:1
2:1
15:22:3
2:1
15:25:5
2:1
15:25:7
2:0
4:20:8
1:1
13:20:9
2:0
3:24:10
0:1
14:22:11
2:0
5:28:12
1:1
4:18:12
1:-1
0:10:12
-1:-1
0:4:11
-1:-1
0:2:10
-1:-1
0:10:9
-1:-1
4:7:8
1:-1
2:10:8
0:-1
0:11:8
-1:0
4:15:7
1:-1
0:9:7
-1:-1
1:3:6
-1:-1
0:8:5
-1:-1
1:4:4
-1:0
0:3:3
-1:0
0:9:2
-1:1
2:3:2
0:0
0:4:2
-1:0
1:4:1
-1:-1
0:1:1
-1:-1
0:6:1
-1:1
1:4:1
-1:1
0:6:1
-1:-1
0:4:1
-1:1
1:6:1
-1:1
0:5:1
-1:-1
2:4:1
0:1
0:3:2
-1:-1
1:2:1
-1:1
0:1:1
-1:-1
0:4:1
-1:1
2:4:1
0:1
0:3:2
-1:0
0:1:1
-1:-1
0:3:1
-1:1
1:1:1
-1:-1
0:1:1
-1:-1
0:1:1
-1:-1
1:3:1
-1:-1
0:1:1
-1:-1
1:1:1
-1:-1
1:5:1
-1:-1
0:4:1
-1:-1
0:2:1
-1:1
0:3:1
-1:1
0:1:1
-1:-1
1:1:1
-1:-1
0:1:1
-1:-1
2:2:1
0:1
0:4:2
-1:0
0:2:1
-1:1
0:3:1
-1:1
0:1:1
-1:-1
0:1:1
-1:-1
0:5:1
-1:1
2:4:1
0:1
0:0:2
-1:-1
0:4:1
-1:1
0:1:1
-1:-1
0:2:1
-1:1
0:2:1
-1:1
0:4:1
-1:1
2:6:1
0:1
0:4:2
-1:-1
0:2:1
-1:1
0:6:1
-1:1
0:2:1
-1:1
2:1:1
0:-1
2:3:1
0:-1
0:1:1
-1:-1
2:2:1
0:1
0:2:2
-1:0
2:6:1
0:1
0:3:2
-1:-1
0:2:1
-1:1
0:2:1
-1:1
0:1:1
-1:-1
0:2:1
-1:1
0:0:1
-1:-1
0:2:1
-1:1
2:2:1
0:1
0:4:2
-1:-1
0:3:1
-1:-1
0:2:1
-1:1
0:4:1
-1:1
2:4:1
0:1
0:2:2
-1:0
2:2:1
0:1
0:2:2
-1:-1
0:2:1
-1:1
0:2:1
-1:1
0:2:1
-1:1
0:3:1
-1:1
2:1:1
0:-1
2:3:1
0:1
2:3:2
0:-1
0:2:2
-1:-1
1:2:1
-1:1
0:3:1
-1:-1
1:3:1
-1:-1
0:2:1
-1:1
0:3:1
-1:-1
0:2:1
-1:1
2:2:1
0:1
0:1:2
-1:0
2:3:1
0:-1
0:2:1
-1:-1
0:1:1
-1:-1
0:2:1
-1:1
2:2:1
0:1
3:1:2
0:-1
1:1:2
-1:-1
0:1:1
-1:-1
0:2:1
-1:1
0:2:1
-1:1
1:2:1
-1:1
0:2:1
-1:-1
4:1:1
1:-1
0:2:1
-1:-1
0:6:1
-1:1
0:1:1
-1:-1
0:3:1
-1:1
0:5:1
-1:1
0:1:1
-1:-1
0:4:1
-1:1
0:1:1
-1:-1
0:2:1
-1:1
0:3:1
-1:-1
0:2:1
-1:1
0:1:1
-1:-1
0:2:1
-1:1
0:1:1
-1:-1
0:2:1
-1:1
0:4:1
-1:1
0:3:1
-1:-1
0:2:1
-1:1
2:3:1
0:1
0:4:2
-1:0
0:2:1
-1:1
2:2:1
0:1
0:2:2
-1:-1
0:3:1
-1:-1
0:1:1
-1:-1
0:1:1
-1:-1
0:4:1
-1:1
2:2:1
0:1
0:3:2
-1:-1
0:2:1
-1:-1
0:2:1
-1:-1
0:2:1
-1:1
0:1:1
-1:1
0:2:1
-1:1
0:2:1
-1:1
0:2:1
-1:-1
0:2:1
-1:1
0:4:1
-1:1
0:2:1
-1:1
0:1:1
-1:-1
0:1:1
-1:-1
0:3:1
-1:-1
0:4:1
-1:-1
0:2:1
-1:1
0:2:1
-1:1
0:1:1
-1:1
0:3:1
-1:-1
2:1:1
0:-1
0:2:1
-1:1
0:1:1
-1:1
2:3:1
0:-1
0:4:1
-1:-1
2:2:1
0:1
0:2:2
-1:-1
0:2:1
-1:1
0:5:1
-1:-1
4:2:1
1:1
0:2:2
-1:0
0:3:1
-1:-1
0:1:1
-1:-1
0:1:1
-1:-1
1:2:1
-1:1
0:1:1
-1:-1
0:1:1
-1:-1
1:3:1
-1:1
0:1:1
-1:1
2:1:1
0:-1
0:2:1
-1:1
0:1:1
-1:-1
0:4:1
-1:1
0:1:1
-1:-1
0:1:1
-1:1
2:1:1
0:-1
1:2:1
-1:-1
2:3:1
0:1
2:1:2
0:-1
0:2:2
-1:0
0:2:1
-1:1
2:1:1
0:-1
0:0:1
-1:-1
2:2:1
0:-1
0:2:1
-1:-1
0:1:1
-1:-1
0:2:1
-1:1
1:2:1
-1:1
0:1:1
-1:-1
0:0:1
-1:-1
0:1:1
-1:-1
0:3:1
-1:1
0:2:1
-1:1
1:2:1
-1:-1
0:1:1
-1:-1
0:5:1
-1:1
0:6:1
-1:1
0:4:1
-1:1
1:3:1
-1:1
4:1:1
1:-1
0:5:1
-1:-1
0:2:1
-1:1
1:1:1
-1:-1
0:1:1
-1:-1
0:1:1
-1:-1
0:1:1
-1:-1
0:1:1
-1:-1
0:1:1
-1:-1
0:1:1
-1:-1
0:2:1
-1:-1
0:2:1
-1:1
0:0:1
-1:-1
1:1:1
-1:-1
1:1:1
-1:-1
0:1:1
-1:-1
0:3:1
-1:1
0:2:1
-1:1
0:1:1
-1:1
0:1:1
-1:-1
0:1:1
-1:-1
1:2:1
-1:1
0:3:1
-1:-1
2:2:1
0:1
0:1:2
-1:-1
0:1:1
-1:-1
1:4:1
-1:1
0:1:1
-1:-1
0:2:1
-1:1
0:2:1
-1:1
0:1:1
-1:-1
0:1:1
-1:-1
0:1:1
-1:1
1:1:1
-1:-1
0:0:1
-1:-1
0:1:1
-1:-1
0:4:1
-1:1
0:2:1
-1:1
0:1:1
-1:-1
1:2:1
-1:-1
0:1:1
-1:-1
0:3:1
-1:1
2:4:1
0:1
1:3:2
-1:-1
3:4:1
0:1
0:1:2
-1:-1
0:1:1
-1:-1
0:1:1
-1:-1
0:2:1
-1:1
0:1:1
-1:1
0:3:1
-1:-1
0:2:1
-1:1
0:3:1
-1:1
2:1:1
0:1
0:1:2
-1:-1
0:2:1
-1:1
2:1:1
0:-1
0:5:1
-1:1
2:3:1
0:1
0:1:2
-1:-1
0:0:1
-1:-1
1:1:1
-1:-1
0:1:1
-1:-1
0:1:1
-1:-1
0:1:1
-1:-1
0:1:1
-1:-1
0:3:1
-1:1
2:2:1
0:1
0:1:2
-1:-1
0:2:1
-1:1
0:2:1
-1:1
0:1:1
-1:1
0:1:1
-1:-1
0:1:1
-1:-1
0:4:1
-1:1
0:2:1
-1:1
2:1:1
0:-1
0:3:1
-1:-1
2:1:1
0:-1
0:4:1
-1:-1
0:2:1
-1:1
2:1:1
0:-1
1:4:1
-1:1
2:2:1
0:-1
2:1:1
0:-1
0:2:1
-1:1
1:1:1
-1:-1
1:3:1
-1:-1
0:0:1
-1:-1
2:2:1
0:1
4:1:2
1:-1
2:2:2
0:-1
0:2:2
-1:-1
3:1:1
0:-1
1:2:1
-1:-1
0:4:1
-1:-1
0:1:1
-1:-1
0:2:1
-1:1
0:1:1
-1:1
0:2:1
-1:1
0:2:1
-1:1
0:2:1
-1:1
0:3:1
-1:1
0:2:1
-1:1
2:4:1
0:1
0:2:2
-1:0
0:4:1
-1:1
0:2:1
-1:1
0:2:1
-1:1
0:1:1
-1:-1
0:1:1
-1:-1
2:2:1
0:1
0:3:2
-1:0
0:2:1
-1:1
2:1:1
0:-1
0:2:1
-1:1
2:2:1
0:-1
2:2:1
0:-1
0:2:1
-1:1
0:3:1
-1:-1
0:3:1
-1:1
0:0:1
-1:-1
0:2:1
-1:-1
0:2:1
-1:1
0:2:1
-1:1
0:1:1
-1:-1
0:2:1
-1:1
0:1:1
-1:1
0:1:1
-1:-1
2:1:1
0:-1
3:3:1
0:-1
0:4:1
-1:-1
2:1:1
0:1
0:1:2
-1:-1
4:2:1
1:1
0:4:2
-1:-1
0:0:1
-1:-1
0:0:1
-1:-1
0:0:1
-1:-1
0:0:1
-1:-1
0:0:1
-1:-1
0:1:1
-1:-1
0:2:1
-1:1
1:3:1
-1:1
0:2:1
-1:1
2:4:1
0:1
0:1:2
-1:-1
2:1:1
0:-1
0:3:1
-1:-1
0:1:1
-1:-1
0:0:1
-1:-1
0:2:1
-1:-1
0:1:1
-1:-1
0:1:1
-1:-1
0:1:1
-1:-1
0:4:1
-1:1
0:2:1
-1:1
0:3:1
-1:-1
0:1:1
-1:-1
0:1:1
-1:-1
0:2:1
-1:-1
0:15:1
-1:1
0:2:1
-1:-1
0:1:1
-1:1
0:0:1
-1:-1
2:3:1
0:-1
0:2:1
-1:1
0:4:1
-1:1
0:2:1
-1:1
0:3:1
-1:-1
0:1:1
-1:-1
0:1:1
-1:1
0:2:1
-1:-1
0:2:1
-1:1
0:2:1
-1:-1
0:1:1
-1:-1
0:1:1
-1:-1
0:2:1
-1:1
0:0:1
-1:-1
0:2:1
-1:1
0:1:1
-1:-1
1:3:1
-1:-1
0:4:1
-1:-1
1:1:1
-1:-1
2:2:1
0:1
0:2:2
-1:0
1:1:1
-1:-1
0:2:1
-1:1
2:2:1
0:-1
0:2:1
-1:1
0:2:1
-1:1
0:1:1
-1:-1
0:2:1
-1:1
0:1:1
-1:1
0:0:1
-1:-1
0:1:1
-1:-1
0:1:1
-1:-1
0:0:1
-1:-1
0:1:1
-1:-1
0:0:1
-1:-1
0:0:1
-1:-1
0:1:1
-1:-1
0:3:1
-1:1
0:1:1
-1:-1
0:2:1
-1:1
0:2:1
-1:1
0:2:1
-1:1
0:3:1
-1:1
0:1:1
-1:-1
0:0:1
-1:-1
0:1:1
-1:1
0:1:1
-1:-1
0:1:1
-1:1
0:0:1
-1:-1
1:1:1
-1:1
0:1:1
-1:-1
0:1:1
-1:1
0:0:1
-1:-1
0:1:1
-1:-1
0:3:1
-1:1
0:0:1
-1:-1
0:1:1
-1:-1
0:2:1
-1:1
0:2:1
-1:1
0:2:1
-1:-1
0:1:1
-1:-1
0:1:1
-1:-1
0:2:1
-1:1
0:2:1
-1:1
0:2:1
-1:-1
0:1:1
-1:-1
0:2:1
-1:1
0:0:1
-1:-1
0:1:1
-1:-1
0:2:1
-1:1
0:1:1
-1:-1
0:1:1
-1:-1
0:2:1
-1:1
1:2:1
-1:1
0:1:1
-1:-1
0:1:1
-1:-1
0:0:1
-1:-1
0:0:1
-1:-1
0:1:1
-1:-1
0:0:1
-1:-1
0:0:1
-1:-1
0:2:1
-1:1
0:2:1
-1:1
2:2:1
0:1
0:0:2
-1:-1
0:1:1
-1:-1
0:0:1
-1:-1
0:1:1
-1:-1
0:2:1
-1:1
0:1:1
-1:-1
1:2:1
-1:1
0:1:1
-1:-1
0:1:1
-1:-1
0:2:1
-1:1
0:2:1
-1:1
0:1:1
-1:-1
0:0:1
-1:-1
0:1:1
-1:-1
0:0:1
-1:-1
0:3:1
-1:1
0:1:1
-1:-1
0:1:1
-1:-1
0:0:1
-1:-1
0:2:1
-1:-1
0:1:1
-1:-1
1:1:1
-1:-1
2:1:1
0:-1
0:3:1
-1:-1
1:5:1
-1:-1
0:2:1
-1:1
0:2:1
-1:1
1:4:1
-1:1
1:4:1
-1:-1
0:4:1
-1:-1
0:1:1
-1:1
2:1:1
0:-1
0:4:1
-1:-1
0:1:1
-1:-1
0:1:1
-1:-1
0:2:1
-1:1
1:1:1
-1:-1
0:2:1
-1:1
0:2:1
-1:1
0:2:1
-1:1
0:1:1
-1:1
0:2:1
-1:1
0:2:1
-1:1
0:2:1
-1:1
2:2:1
0:1
0:2:2
-1:0
1:1:1
-1:-1
0:1:1
-1:-1
0:1:1
-1:-1
2:3:1
0:1
0:3:2
-1:-1
0:1:1
-1:-1
0:1:1
-1:-1
0:2:1
-1:1
0:1:1
-1:-1
0:1:1
-1:-1
0:3:1
-1:-1
4:8:1
1:-1
7:3:1
1:1
0:2:2
-1:0
5:5:1
1:1
8:3:2
2:1
12:4:4
2:1
15:6:6
2:1
2:10:8
0:-1
14:17:8
2:-1
0:29:8
-1:0
11:27:7
2:-1
15:23:7
2:1
15:28:9
2:1
5:30:11
1:1
1:30:12
-1:1
15:26:12
2:0
0:28:12
-1:0
8:13:11
2:-1
10:36:11
2:-1
0:34:11
-1:-1
3:30:10
0:-1
2:31:10
0:0
6:32:10
1:0
4:30:11
1:-1
2:34:11
0:0
0:37:11
-1:-1
0:34:10
-1:0
0:22:9
-1:-1
0:15:8
-1:-1
9:14:7
2:0
15:9:8
2:1
15:9:10
2:1
15:9:12
2:0
15:9:12
2:0
15:9:12
2:0
7:9:12
1:-1
15:9:12
2:0
15:9:12
2:0
15:9:12
2:0
15:9:12
2:0
15:9:12
2:0
15:9:12
2:0
8:11:12
2:-1
6:16:12
1:0
0:7:12
-1:-1
0:19:11
-1:1
0:21:11
-1:-1
0:16:10
-1:-1
1:20:9
-1:-1
3:22:8
0:-1
0:23:8
-1:0
0:25:7
-1:-1
0:26:6
-1:-1
0:11:5
-1:-1
0:7:4
-1:-1
0:3:3
-1:-1
1:5:2
-1:0
0:3:1
-1:-1
0:4:1
-1:-1
0:8:1
-1:-1
2:8:1
0:1
0:4:2
-1:-1
0:6:1
-1:-1
0:3:1
-1:-1
0:4:1
-1:1
0:2:1
-1:1
0:2:1
-1:1
0:3:1
-1:1
1:10:1
-1:1
0:5:1
-1:-1
2:3:1
0:-1
0:1:1
-1:-1
0:6:1
-1:1
2:4:1
0:1
0:2:2
-1:-1
0:1:1
-1:-1
1:5:1
-1:1
0:4:1
-1:-1
0:4:1
-1:1
0:1:1
-1:-1
0:7:1
-1:1
2:4:1
0:1
2:7:2
0:0
4:4:2
1:-1
0:2:2
-1:0
0:4:1
-1:1
2:4:1
0:1
0:3:2
-1:-1
0:2:1
-1:1
0:2:1
-1:1
0:3:1
-1:1
0:1:1
-1:-1
0:4:1
-1:1
0:4:1
-1:1
0:4:1
-1:1
0:4:1
-1:1
0:4:1
-1:-1
0:2:1
-1:-1
0:4:1
-1:1
0:4:1
-1:1
0:1:1
-1:-1
0:4:1
-1:1
0:2:1
-1:1
0:4:1
-1:1
0:4:1
-1:1
0:4:1
-1:1
0:1:1
-1:-1
0:2:1
-1:1
0:4:1
-1:1
0:2:1
-1:1
1:2:1
-1:1
2:1:1
0:-1
2:2:1
0:-1
0:3:1
-1:-1
0:4:1
-1:1
1:2:1
-1:1
0:4:1
-1:1
0:2:1
-1:1
0:4:1
-1:1
2:1:1
0:-1
2:4:1
0:-1
0:2:1
-1:1
1:4:1
-1:1
0:4:1
-1:-1
1:4:1
-1:1
0:3:1
-1:-1
0:3:1
-1:1
0:2:1
-1:1
0:2:1
-1:1
0:2:1
-1:-1
3:2:1
0:1
0:3:2
-1:-1
0:2:1
-1:1
2:2:1
0:1
0:5:2
-1:1
0:3:2
-1:0
0:2:1
-1:1
0:0:1
-1:-1
0:3:1
-1:-1
0:1:1
-1:1
0:0:1
-1:-1
0:3:1
-1:-1
0:4:1
-1:1
2:2:1
0:1
3:3:2
0:-1
0:2:2
-1:0
0:1:1
-1:-1
1:5:1
-1:1
5:1:1
1:-1
0:2:1
-1:-1
0:2:1
-1:1
2:2:1
0:1
1:2:2
-1:0
0:2:1
-1:1
0:2:1
-1:1
0:4:1
-1:1
0:2:1
-1:1
0:2:1
-1:1
0:2:1
-1:1
0:2:1
-1:1
0:2:1
-1:1
0:3:1
-1:1
0:2:1
-1:1
0:2:1
-1:1
0:2:1
-1:1
0:2:1
-1:1
0:2:1
-1:1
0:1:1
-1:-1
0:1:1
-1:-1
0:4:1
-1:1
0:4:1
-1:1
0:1:1
-1:1
0:4:1
-1:-1
0:1:1
-1:-1
1:4:1
-1:-1
0:2:1
-1:-1
0:1:1
-1:-1
2:4:1
0:1
0:4:2
-1:-1
0:1:1
-1:-1
0:3:1
-1:1
0:1:1
-1:-1
1:1:1
-1:-1
2:3:1
0:-1
0:3:1
-1:-1
0:2:1
-1:1
0:5:1
-1:1
0:2:1
-1:1
0:1:1
-1:-1
2:4:1
0:1
0:2:2
-1:0
1:4:1
-1:-1
0:2:1
-1:1
0:3:1
-1:-1
0:1:1
-1:1
0:1:1
-1:-1
0:3:1
-1:-1
0:5:1
-1:1
0:4:1
-1:1
0:1:1
-1:-1
1:4:1
-1:1
0:1:1
-1:-1
0:2:1
-1:1
0:4:1
-1:1
2:5:1
0:1
0:2:2
-1:0
0:1:1
-1:-1
0:2:1
-1:-1
0:3:1
-1:-1
1:2:1
-1:1
0:2:1
-1:-1
0:3:1
-1:1
0:0:1
-1:-1
0:3:1
-1:-1
0:4:1
-1:1
0:2:1
-1:1
0:2:1
-1:1
2:1:1
0:-1
0:2:1
-1:1
0:2:1
-1:1
0:0:1
-1:-1
0:3:1
-1:-1
0:1:1
-1:1
0:1:1
-1:-1
0:2:1
-1:-1
0:2:1
-1:-1
0:1:1
-1:-1
0:4:1
-1:1
2:2:1
0:1
0:2:2
-1:0
0:3:1
-1:-1
0:2:1
-1:1
0:6:1
-1:1
0:3:1
-1:1
0:2:1
-1:1
0:1:1
-1:-1
1:2:1
-1:1
0:2:1
-1:-1
0:3:1
-1:1
1:1:1
-1:-1
0:2:1
-1:-1
0:4:1
-1:1
1:2:1
-1:-1
0:1:1
-1:-1
0:1:1
-1:-1
0:3:1
-1:1
1:1:1
-1:-1
0:3:1
-1:-1
0:1:1
-1:-1
0:4:1
-1:1
0:2:1
-1:1
0:1:1
-1:-1
1:2:1
-1:1
0:1:1
-1:-1
0:1:1
-1:-1
0:1:1
-1:-1
0:2:1
-1:1
0:1:1
-1:-1
2:3:1
0:1
1:1:2
-1:-1
0:4:1
-1:1
0:3:1
-1:1
0:3:1
-1:1
0:3:1
-1:-1
0:3:1
-1:1
0:2:1
-1:-1
0:4:1
-1:1
0:1:1
-1:-1
0:2:1
-1:1
1:4:1
-1:1
2:2:1
0:1
0:3:2
-1:-1
0:1:1
-1:-1
0:4:1
-1:1
0:1:1
-1:-1
0:2:1
-1:1
0:2:1
-1:-1
0:1:1
-1:-1
0:2:1
-1:1
0:2:1
-1:1
0:3:1
-1:-1
1:2:1
-1:1
0:3:1
-1:-1
0:2:1
-1:1
0:0:1
-1:-1
0:1:1
-1:-1
1:3:1
-1:1
0:2:1
-1:1
0:4:1
-1:1
2:1:1
0:-1
0:1:1
-1:-1
2:2:1
0:1
1:4:2
-1:-1
0:2:1
-1:-1
0:1:1
-1:1
1:1:1
-1:-1
0:4:1
-1:1
0:2:1
-1:1
2:1:1
0:-1
2:5:1
0:-1
0:2:1
-1:-1
0:1:1
-1:-1
1:3:1
-1:1
2:2:1
0:-1
0:2:1
-1:1
0:4:1
-1:1
0:1:1
-1:-1
0:1:1
-1:-1
0:2:1
-1:1
0:2:1
-1:1
0:2:1
-1:1
2:4:1
0:1
0:1:2
-1:-1
1:5:1
-1:-1
2:2:1
0:-1
0:2:1
-1:-1
3:4:1
0:1
1:1:2
-1:-1
1:1:1
-1:-1
0:4:1
-1:-1
2:2:1
0:1
0:3:2
-1:-1
0:2:1
-1:1
1:2:1
-1:1
0:3:1
-1:-1
0:2:1
-1:1
2:2:1
0:1
0:1:2
-1:-1
0:4:1
-1:1
0:2:1
-1:1
0:2:1
-1:-1
0:1:1
-1:-1
0:4:1
-1:1
2:1:1
0:-1
0:2:1
-1:-1
1:2:1
-1:-1
3:3:1
0:-1
0:4:1
-1:1
0:1:1
-1:-1
0:1:1
-1:-1
2:2:1
0:1
2:2:2
0:-1
0:4:2
-1:-1
1:2:1
-1:1
2:1:1
0:-1
0:1:1
-1:-1
0:1:1
-1:-1
0:2:1
-1:-1
0:2:1
-1:1
0:2:1
-1:-1
0:2:1
-1:1
0:1:1
-1:-1
0:5:1
-1:-1
0:1:1
-1:-1
0:2:1
-1:-1
2:4:1
0:1
1:2:2
-1:0
0:1:1
-1:-1
1:2:1
-1:1
2:1:1
0:-1
0:2:1
-1:1
0:4:1
-1:1
0:2:1
-1:1
2:1:1
0:-1
1:3:1
-1:-1
0:1:1
-1:-1
0:2:1
-1:1
0:2:1
-1:1
0:2:1
-1:1
2:4:1
0:1
2:1:2
0:-1
0:2:2
-1:-1
0:2:1
-1:1
0:3:1
-1:-1
1:3:1
-1:-1
2:5:1
0:1
0:2:2
-1:-1
0:1:1
-1:1
0:1:1
-1:-1
0:2:1
-1:1
0:1:1
-1:1
0:3:1
-1:-1
2:3:1
0:-1
0:1:1
-1:-1
0:1:1
-1:-1
0:1:1
-1:-1
0:2:1
-1:1
2:2:1
0:1
2:2:2
0:-1
0:2:2
-1:-1
0:3:1
-1:1
1:3:1
-1:1
0:1:1
-1:-1
0:1:1
-1:-1
1:1:1
-1:1
2:3:1
0:-1
0:2:1
-1:1
0:3:1
-1:1
0:1:1
-1:1
0:3:1
-1:-1
0:1:1
-1:-1
0:4:1
-1:1
0:2:1
-1:1
0:1:1
-1:-1
0:3:1
-1:1
0:4:1
-1:1
0:7:1
-1:-1
0:1:1
-1:-1
0:1:1
-1:-1
0:2:1
-1:1
0:2:1
-1:1
0:2:1
-1:1
0:1:1
-1:-1
2:3:1
0:-1
1:1:1
-1:-1
2:1:1
0:-1
0:1:1
-1:-1
0:2:1
-1:1
0:1:1
-1:-1
0:2:1
-1:-1
0:1:1
-1:-1
0:2:1
-1:1
0:1:1
-1:-1
0:2:1
-1:1
0:0:1
-1:-1
1:2:1
-1:-1
0:4:1
-1:1
0:1:1
-1:-1
5:3:1
1:1
0:1:2
-1:-1
0:2:1
-1:1
0:2:1
-1:1
2:2:1
0:1
0:2:2
-1:-1
1:1:1
-1:-1
3:2:1
0:1
0:3:2
-1:0
2:2:1
0:1
0:1:2
-1:-1
0:1:1
-1:1
0:1:1
-1:-1
2:2:1
0:-1
0:1:1
-1:-1
0:2:1
-1:1
0:2:1
-1:1
1:14:1
-1:1
0:1:1
-1:-1
0:1:1
-1:-1
0:1:1
-1:-1
0:2:1
-1:-1
0:1:1
-1:-1
0:2:1
-1:-1
0:4:1
-1:1
1:1:1
-1:-1
2:2:1
0:1
3:2:2
0:-1
0:1:2
-1:-1
0:4:1
-1:1
0:2:1
-1:-1
0:1:1
-1:-1
0:2:1
-1:1
0:3:1
-1:-1
0:3:1
-1:1
0:2:1
-1:1
2:3:1
0:1
0:3:2
-1:-1
0:2:1
-1:1
0:1:1
-1:-1
2:2:1
0:1
0:1:2
-1:-1
0:0:1
-1:-1
0:1:1
-1:-1
0:2:1
-1:1
2:2:1
0:1
0:1:2
-1:-1
0:1:1
-1:-1
0:2:1
-1:1
0:2:1
-1:1
0:1:1
-1:-1
0:1:1
-1:-1
0:2:1
-1:1
0:1:1
-1:-1
0:1:1
-1:-1
0:4:1
-1:1
0:4:1
-1:-1
2:1:1
0:-1
0:2:1
-1:-1
0:2:1
-1:1
2:1:1
0:-1
0:2:1
-1:-1
0:2:1
-1:1
0:0:1
-1:-1
1:2:1
-1:-1
3:1:1
0:-1
1:2:1
-1:-1
0:0:1
-1:-1
0:0:1
-1:-1
0:1:1
-1:-1
1:1:1
-1:-1
0:1:1
-1:-1
0:0:1
-1:-1
0:0:1
-1:-1
0:1:1
-1:-1
0:2:1
-1:1
0:2:1
-1:1
0:2:1
-1:1
1:1:1
-1:1
0:1:1
-1:-1
0:2:1
-1:-1
0:1:1
-1:-1
0:1:1
-1:-1
0:3:1
-1:-1
3:9:1
0:-1
9:4:1
2:-1
2:3:1
0:-1
5:3:1
1:1
7:2:2
1:1
10:3:3
2:1
13:3:5
2:0
15:3:6
2:0
0:3:7
-1:0
0:9:6
-1:-1
14:26:5
2:-1
11:28:5
2:0
0:27:6
-1:0
5:32:5
1:-1
7:31:5
1:0
5:34:6
1:-1
0:32:6
-1:-1
2:35:5
0:-1
0:44:5
-1:-1
2:16:4
0:-1
2:9:4
0:0
7:10:4
1:-1
15:9:4
2:1
15:9:6
2:1
15:9:8
2:1
15:8:10
2:0
15:9:11
2:0
8:9:12
2:-1
15:9:12
2:0
15:9:12
2:0
15:9:12
2:0
15:9:12
2:0
15:8:12
2:0
12:12:12
2:0
8:7:12
2:-1
6:16:12
1:0
0:22:12
-1:-1
0:18:11
-1:-1
0:3:10
-1:-1
0:16:9
-1:-1
2:21:8
0:-1
4:19:8
1:0
0:20:9
-1:0
0:25:8
-1:-1
0:23:7
-1:-1
0:8:6
-1:0
0:6:5
-1:-1
1:7:4
-1:-1
0:4:3
-1:-1
12:14:2
2:0
15:17:3
2:1
2:21:5
0:0
15:26:5
2:1
15:22:7
2:0
15:25:8
2:1
15:24:10
2:0
4:19:11
1:1
13:20:12
2:0
3:24:12
0:1
14:22:12
2:0
5:29:12
1:1
4:17:12
1:-1
0:5:12
-1:-1
0:4:11
-1:-1
0:13:10
-1:-1
6:5:9
1:-1
1:4:9
-1:-1
2:11:8
0:-1
0:4:8
-1:-1
3:9:7
0:-1
0:8:7
-1:0
0:6:6
-1:-1
0:11:5
-1:-1
1:7:4
-1:0
2:13:3
0:0
0:4:3
-1:-1
0:2:2
-1:0
2:4:1
0:-1
1:3:1
-1:-1
3:2:1
0:1
1:3:2
-1:-1
0:1:1
-1:-1
0:4:1
-1:1
0:2:1
-1:1
1:6:1
-1:1
0:4:1
-1:-1
0:1:1
-1:-1
0:4:1
-1:1
0:4:1
-1:1
0:3:1
-1:1
0:4:1
-1:1
0:3:1
-1:1
0:1:1
-1:-1
0:4:1
-1:1
0:1:1
-1:-1
0:4:1
-1:1
0:4:1
-1:1
0:2:1
-1:-1
0:7:1
-1:1
0:4:1
-1:1
0:1:1
-1:-1
0:4:1
-1:1
0:4:1
-1:1
1:2:1
-1:1
0:1:1
-1:-1
2:4:1
0:1
3:1:2
0:-1
0:4:2
-1:-1
3:2:1
0:1
0:3:2
-1:-1
0:2:1
-1:1
0:2:1
-1:1
2:2:1
0:1
0:2:2
-1:0
0:5:1
-1:1
0:1:1
-1:-1
0:7:1
-1:1
0:4:1
-1:1
0:2:1
-1:1
1:3:1
-1:-1
2:3:1
0:-1
1:4:1
-1:1
0:4:1
-1:-1
0:2:1
-1:1
2:2:1
0:1
0:2:2
-1:0
2:1:1
0:-1
0:1:1
-1:-1
1:2:1
-1:1
0:3:1
-1:-1
2:2:1
0:1
2:2:2
0:-1
0:5:2
-1:-1
0:2:1
-1:1
2:3:1
0:1
0:2:2
-1:-1
0:4:1
-1:1
0:3:1
-1:-1
0:4:1
-1:1
0:4:1
-1:1
0:4:1
-1:1
0:4:1
-1:1
0:7:1
-1:1
0:3:1
-1:-1
3:4:1
0:-1
0:1:1
-1:-1
0:1:1
-1:-1
0:3:1
-1:-1
0:1:1
-1:-1
2:2:1
0:1
0:1:2
-1:-1
0:2:1
-1:1
0:4:1
-1:1
0:2:1
-1:1
0:2:1
-1:1
0:2:1
-1:1
0:1:1
-1:-1
2:1:1
0:-1
0:2:1
-1:-1
0:2:1
-1:1
0:4:1
-1:1
0:4:1
-1:1
0:1:1
-1:-1
0:4:1
-1:1
0:4:1
-1:1
2:1:1
0:-1
0:4:1
-1:-1
2:3:1
0:1
2:3:2
0:0
1:3:2
-1:0
0:2:1
-1:-1
2:1:1
0:-1
0:6:1
-1:1
0:1:1
-1:-1
2:2:1
0:1
0:3:2
-1:0
0:4:1
-1:-1
2:2:1
0:1
0:3:2
-1:-1
0:1:1
-1:-1
0:4:1
-1:1
0:3:1
-1:1
0:2:1
-1:1
0:1:1
-1:-1
1:2:1
-1:1
0:2:1
-1:-1
0:2:1
-1:1
0:2:1
-1:1
0:2:1
-1:1
0:1:1
-1:-1
0:4:1
-1:1
0:5:1
-1:1
0:4:1
-1:1
2:2:1
0:1
0:4:2
-1:-1
0:3:1
-1:1
0:3:1
-1:-1
0:4:1
-1:1
0:0:1
-1:-1
3:3:1
0:-1
0:2:1
-1:-1
0:2:1
-1:1
0:1:1
-1:-1
0:12:1
-1:1
0:4:1
-1:1
0:4:1
-1:1
0:4:1
-1:1
0:3:1
-1:1
2:2:1
0:1
2:1:2
0:-1
0:1:2
-1:-1
0:3:1
-1:1
0:1:1
-1:-1
0:1:1
-1:-1
0:3:1
-1:-1
1:1:1
-1:-1
0:3:1
-1:1
0:2:1
-1:1
0:3:1
-1:1
0:2:1
-1:1
1:2:1
-1:1
0:4:1
-1:1
0:4:1
-1:1
0:3:1
-1:1
1:3:1
-1:-1
0:3:1
-1:1
0:3:1
-1:-1
0:1:1
-1:-1
2:4:1
0:1
0:2:2
-1:0
0:3:1
-1:-1
2:2:1
0:1
0:4:2
-1:0
0:2:1
-1:1
0:2:1
-1:1
2:3:1
0:1
0:0:2
-1:-1
0:1:1
-1:-1
0:2:1
-1:1
0:2:1
-1:1
0:6:1
-1:1
0:1:1
-1:1
0:1:1
-1:-1
1:3:1
-1:-1
3:2:1
0:1
0:2:2
-1:0
0:2:1
-1:1
0:1:1
-1:-1
0:3:1
-1:-1
5:2:1
1:1
1:1:2
-1:-1
0:1:1
-1:-1
0:2:1
-1:-1
0:2:1
-1:1
0:1:1
-1:-1
0:4:1
-1:1
0:1:1
-1:-1
0:4:1
-1:1
0:1:1
-1:-1
0:3:1
-1:1
1:2:1
-1:1
2:3:1
0:-1
0:1:1
-1:-1
0:2:1
-1:1
1:2:1
-1:1
0:4:1
-1:-1
2:3:1
0:1
0:3:2
-1:-1
0:3:1
-1:-1
0:1:1
-1:-1
2:2:1
0:-1
1:1:1
-1:-1
2:2:1
0:-1
2:4:1
0:1
0:2:2
-1:-1
1:4:1
-1:-1
0:2:1
-1:1
0:2:1
-1:1
0:4:1
-1:1
2:2:1
0:1
0:2:2
-1:-1
0:2:1
-1:1
0:1:1
-1:-1
0:2:1
-1:1
2:2:1
0:1
2:1:2
0:-1
0:0:2
-1:-1
0:1:1
-1:-1
0:2:1
-1:1
0:3:1
-1:-1
0:4:1
-1:1
2:2:1
0:1
0:2:2
-1:0
0:3:1
-1:-1
0:4:1
-1:1
0:2:1
-1:1
3:4:1
0:1
0:2:2
-1:0
0:6:1
-1:1
0:1:1
-1:-1
0:2:1
-1:1
0:1:1
-1:-1
0:1:1
-1:-1
0:1:1
-1:-1
2:2:1
0:1
0:1:2
-1:-1
0:2:1
-1:1
1:1:1
-1:-1
0:1:1
-1:-1
0:2:1
-1:1
2:1:1
0:-1
0:3:1
-1:-1
0:1:1
-1:-1
0:1:1
-1:-1
0:1:1
-1:-1
0:1:1
-1:-1
0:3:1
-1:1
0:3:1
-1:-1
0:3:1
-1:-1
0:4:1
-1:1
0:1:1
-1:-1
1:1:1
-1:-1
0:1:1
-1:-1
0:2:1
-1:1
0:3:1
-1:-1
0:2:1
-1:1
1:1:1
-1:-1
2:2:1
0:-1
0:2:1
-1:-1
1:1:1
-1:-1
0:2:1
-1:-1
0:2:1
-1:1
0:2:1
-1:1
0:1:1
-1:-1
0:2:1
-1:1
1:4:1
-1:1
0:2:1
-1:1
0:3:1
-1:-1
0:3:1
-1:-1
0:2:1
-1:1
0:2:1
-1:-1
0:4:1
-1:-1
0:2:1
-1:1
0:2:1
-1:1
2:2:1
0:1
0:1:2
-1:0
0:1:1
-1:-1
0:1:1
-1:-1
0:2:1
-1:1
0:1:1
-1:1
0:1:1
-1:-1
2:1:1
0:-1
0:2:1
-1:-1
0:2:1
-1:1
2:2:1
0:1
0:1:2
-1:-1
0:2:1
-1:1
0:1:1
-1:-1
0:3:1
-1:1
0:3:1
-1:1
0:1:1
-1:1
0:3:1
-1:1
0:2:1
-1:1
0:2:1
-1:1
0:2:1
-1:1
1:1:1
-1:-1
0:1:1
-1:-1
0:1:1
-1:1
0:1:1
-1:-1
2:2:1
0:1
0:1:2
-1:-1
0:1:1
-1:-1
2:2:1
0:-1
2:1:1
0:-1
0:4:1
-1:1
1:1:1
-1:-1
0:2:1
-1:1
0:2:1
-1:1
0:4:1
-1:1
0:4:1
-1:1
0:1:1
-1:-1
0:2:1
-1:1
0:4:1
-1:1
0:2:1
-1:1
2:2:1
0:1
0:2:2
-1:-1
0:2:1
-1:1
0:2:1
-1:1
4:1:1
1:-1
4:2:1
1:-1
2:1:1
0:-1
2:3:1
0:-1
0:2:1
-1:1
2:2:1
0:1
0:0:2
-1:-1
0:1:1
-1:-1
0:2:1
-1:-1
0:2:1
-1:1
0:4:1
-1:1
1:4:1
-1:1
0:2:1
-1:-1
0:4:1
-1:1
0:1:1
-1:-1
0:1:1
-1:1
0:1:1
-1:-1
0:3:1
-1:1
0:2:1
-1:1
0:2:1
-1:1
0:2:1
-1:1
0:3:1
-1:-1
2:1:1
0:-1
0:2:1
-1:-1
0:3:1
-1:-1
2:2:1
0:1
0:1:2
-1:-1
3:2:1
0:1
1:1:2
-1:-1
3:2:1
0:-1
0:2:1
-1:1
0:2:1
-1:1
0:1:1
-1:1
0:1:1
-1:-1
1:1:1
-1:-1
0:3:1
-1:-1
0:3:1
-1:-1
0:1:1
-1:-1
0:2:1
-1:1
0:3:1
-1:-1
0:2:1
-1:1
0:2:1
-1:1
0:2:1
-1:-1
0:1:1
-1:-1
3:3:1
0:-1
0:2:1
-1:-1
0:2:1
-1:1
0:2:1
-1:1
0:2:1
-1:1
0:4:1
-1:1
0:2:1
-1:1
0:2:1
-1:1
0:1:1
-1:-1
0:1:1
-1:-1
2:3:1
0:-1
0:2:1
-1:-1
0:3:1
-1:-1
0:1:1
-1:-1
0:1:1
-1:-1
0:2:1
-1:1
3:2:1
0:1
0:1:2
-1:-1
0:5:1
-1:-1
0:2:1
-1:1
0:1:1
-1:-1
0:1:1
-1:1
0:0:1
-1:-1
0:3:1
-1:-1
0:4:1
-1:1
1:3:1
-1:1
0:3:1
-1:-1
0:2:1
-1:1
0:2:1
-1:1
0:2:1
-1:-1
0:0:1
-1:-1
0:2:1
-1:1
0:2:1
-1:-1
0:1:1
-1:-1
2:4:1
0:1
0:2:2
-1:-1
0:19:1
-1:1
0:1:1
-1:1
0:1:1
-1:-1
0:2:1
-1:1
0:1:1
-1:1
0:1:1
-1:-1
0:2:1
-1:1
2:3:1
0:1
0:4:2
-1:-1
2:1:1
0:-1
0:1:1
-1:-1
2:3:1
0:1
0:1:2
-1:-1
1:3:1
-1:-1
1:2:1
-1:-1
0:0:1
-1:-1
0:1:1
-1:-1
0:2:1
-1:-1
0:3:1
-1:-1
1:3:1
-1:1
0:1:1
-1:-1
0:2:1
-1:1
0:2:1
-1:1
1:2:1
-1:1
0:2:1
-1:-1
0:3:1
-1:-1
0:2:1
-1:-1
0:2:1
-1:1
0:1:1
-1:-1
0:2:1
-1:1
0:2:1
-1:1
2:2:1
0:1
0:2:2
-1:-1
0:1:1
-1:-1
0:2:1
-1:1
2:1:1
0:-1
2:2:1
0:1
0:0:2
-1:-1
0:1:1
-1:-1
0:1:1
-1:-1
0:1:1
-1:1
0:1:1
-1:-1
2:1:1
0:-1
0:0:1
-1:-1
0:1:1
-1:-1
0:2:1
-1:1
0:2:1
-1:1
0:1:1
-1:-1
0:4:1
-1:1
1:2:1
-1:1
0:2:1
-1:1
0:2:1
-1:1
0:1:1
-1:-1
0:2:1
-1:1
0:0:1
-1:-1
1:1:1
-1:-1
0:1:1
-1:-1
0:4:1
-1:1
0:1:1
-1:-1
1:2:1
-1:1
0:2:1
-1:-1
0:2:1
-1:1
0:1:1
-1:-1
2:1:1
0:-1
2:2:1
0:-1
4:2:1
1:1
0:0:2
-1:-1
0:1:1
-1:-1
0:4:1
-1:1
0:3:1
-1:1
0:2:1
-1:1
0:2:1
-1:1
0:2:1
-1:-1
2:2:1
0:1
0:2:2
-1:-1
2:2:1
0:-1
1:2:1
-1:-1
1:2:1
-1:-1
1:1:1
-1:-1
0:2:1
-1:1
2:2:1
0:1
0:1:2
-1:-1
0:1:1
-1:1
0:0:1
-1:-1
0:0:1
-1:-1
0:2:1
-1:-1
0:2:1
-1:1
1:2:1
-1:1
0:2:1
-1:1
0:2:1
-1:1
0:1:1
-1:-1
0:0:1
-1:-1
0:0:1
-1:-1
0:1:1
-1:-1
0:2:1
-1:1
0:2:1
-1:1
0:1:1
-1:-1
0:2:1
-1:1
0:2:1
-1:1
0:2:1
-1:1
0:2:1
-1:1
0:2:1
-1:-1
0:1:1
-1:-1
0:1:1
-1:-1
0:4:1
-1:1
0:2:1
-1:1
0:2:1
-1:1
0:1:1
-1:-1
0:2:1
-1:1
0:1:1
-1:-1
0:1:1
-1:-1
0:2:1
-1:1
0:2:1
-1:1
0:1:1
-1:-1
0:1:1
-1:-1
1:1:1
-1:-1
0:3:1
-1:1
0:3:1
-1:-1
2:6:1
0:-1
0:5:1
-1:1
7:7:1
1:1
13:6:2
2:1
0:5:4
-1:-1
11:19:3
2:0
11:23:4
2:1
9:12:6
2:0
15:29:7
2:1
15:24:9
2:1
15:26:11
2:0
9:28:12
2:1
5:30:12
1:1
0:28:12
-1:-1
0:21:11
-1:-1
0:19:10
-1:-1
8:31:9
2:-1
11:32:9
2:0
3:22:10
0:0
0:32:10
-1:0
7:36:9
1:-1
4:32:9
1:-1
2:41:9
0:-1
3:42:9
0:-1
0:31:9
-1:0
0:24:8
-1:-1
0:13:7
-1:-1
9:14:6
2:0
15:9:7
2:1
15:9:9
2:1
15:9:11
2:0
15:9:12
2:0
15:9:12
2:0
7:9:12
1:-1
15:9:12
2:0
15:9:12
2:0
15:9:12
2:0
15:9:12
2:0
15:9:12
2:0
15:9:12
2:0
8:11:12
2:-1
6:16:12
1:0
13:22:12
2:-1
2:9:12
0:-1
0:16:12
-1:1
0:16:12
-1:-1
2:21:11
0:-1
3:19:11
0:-1
1:22:11
-1:0
0:25:10
-1:-1
0:23:9
-1:-1
0:9:8
-1:0
0:8:7
-1:0
1:7:6
-1:-1
0:4:5
-1:-1
14:15:4
2:-1
15:16:4
2:1
6:22:6
1:-1
15:22:6
2:0
15:23:7
2:0
15:25:8
2:1
15:25:10
2:-1
8:19:10
2:1
15:18:12
2:-1
4:22:12
1:1
15:24:12
2:0
0:26:12
-1:0
0:25:11
-1:-1
0:1:10
-1:-1
0:5:9
-1:-1
0:11:8
-1:-1
1:10:7
-1:-1
0:5:6
-1:-1
2:4:5
0:-1
0:5:5
-1:-1
1:4:4
-1:0
1:9:3
-1:-1
0:10:2
-1:1
1:2:2
-1:0
3:4:1
0:-1
3:2:1
0:-1
0:3:1
-1:-1
2:4:1
0:1
2:2:2
0:-1
2:4:2
0:-1
3:3:2
0:-1
1:4:2
-1:-1
0:2:1
-1:-1
0:6:1
-1:1
1:2:1
-1:1
0:1:1
-1:-1
0:4:1
-1:1
0:3:1
-1:1
0:5:1
-1:1
0:7:1
-1:1
3:3:1
0:1
0:1:2
-1:-1
0:5:1
-1:1
0:2:1
-1:-1
0:6:1
-1:1
0:7:1
-1:1
2:4:1
0:1
0:4:2
-1:-1
0:5:1
-1:1
0:2:1
-1:1
2:4:1
0:1
1:2:2
-1:-1
0:1:1
-1:-1
0:6:1
-1:1
0:1:1
-1:-1
0:2:1
-1:-1
0:5:1
-1:-1
2:4:1
0:1
2:2:2
0:-1
0:1:2
-1:-1
0:2:1
-1:1
2:2:1
0:1
0:2:2
-1:0
1:2:1
-1:1
0:4:1
-1:1
0:4:1
-1:1
0:2:1
-1:1
0:2:1
-1:1
2:2:1
0:1
2:4:2
0:0
0:2:2
-1:0
0:2:1
-1:-1
0:2:1
-1:1
0:2:1
-1:1
2:4:1
0:1
0:2:2
-1:0
0:4:1
-1:1
2:3:1
0:1
0:2:2
-1:0
0:4:1
-1:1
0:2:1
-1:1
0:4:1
-1:1
0:2:1
-1:1
2:1:1
0:-1
0:3:1
-1:-1
0:2:1
-1:1
2:4:1
0:1
0:2:2
-1:-1
0:4:1
-1:1
0:3:1
-1:-1
0:2:1
-1:1
0:4:1
-1:1
0:2:1
-1:1
0:1:1
-1:-1
0:2:1
-1:1
0:2:1
-1:1
0:1:1
-1:-1
0:2:1
-1:1
0:4:1
-1:1
0:1:1
-1:-1
2:3:1
0:1
0:0:2
-1:-1
0:1:1
-1:-1
0:1:1
-1:-1
0:2:1
-1:-1
0:1:1
-1:-1
2:2:1
0:1
0:1:2
-1:-1
0:4:1
-1:1
2:2:1
0:1
0:1:2
-1:-1
0:2:1
-1:1
0:0:1
-1:-1
2:1:1
0:-1
0:2:1
-1:-1
1:2:1
-1:1
0:1:1
-1:-1
0:3:1
-1:-1
0:2:1
-1:1
0:2:1
-1:-1
0:2:1
-1:1
1:1:1
-1:-1
0:3:1
-1:-1
0:1:1
-1:-1
1:4:1
-1:1
0:3:1
-1:1
0:4:1
-1:1
0:1:1
-1:-1
2:1:1
0:-1
0:1:1
-1:-1
1:2:1
-1:1
2:2:1
0:-1
1:1:1
-1:-1
0:4:1
-1:-1
1:1:1
-1:-1
3:1:1
0:-1
0:1:1
-1:-1
2:2:1
0:1
0:4:2
-1:0
0:2:1
-1:1
2:4:1
0:1
2:1:2
0:-1
0:1:2
-1:-1
0:2:1
-1:1
0:4:1
-1:1
0:2:1
-1:1
0:2:1
-1:1
0:1:1
-1:-1
0:4:1
-1:1
2:2:1
0:1
0:3:2
-1:0
0:2:1
-1:1
0:1:1
-1:-1
0:2:1
-1:1
0:4:1
-1:-1
0:1:1
-1:-1
0:3:1
-1:-1
0:1:1
-1:-1
1:4:1
-1:1
0:2:1
-1:-1
1:4:1
-1:1
0:1:1
-1:-1
0:2:1
-1:-1
0:2:1
-1:1
0:9:1
-1:1
0:2:1
-1:1
0:3:1
-1:1
0:3:1
-1:-1
0:3:1
-1:-1
1:3:1
-1:-1
2:1:1
0:-1
0:2:1
-1:1
0:2:1
-1:1
0:4:1
-1:1
0:0:1
-1:-1
2:1:1
0:-1
0:4:1
-1:-1
2:3:1
0:1
1:4:2
-1:0
0:2:1
-1:-1
0:0:1
-1:-1
2:3:1
0:-1
0:4:1
-1:1
0:3:1
-1:-1
0:4:1
-1:1
2:2:1
0:1
0:0:2
-1:-1
0:1:1
-1:-1
0:1:1
-1:-1
1:1:1
-1:-1
0:1:1
-1:-1
0:2:1
-1:1
0:2:1
-1:1
0:1:1
-1:-1
0:4:1
-1:1
1:2:1
-1:1
2:2:1
0:-1
0:3:1
-1:-1
0:2:1
-1:1
0:2:1
-1:1
0:2:1
-1:-1
2:4:1
0:-1
1:2:1
-1:1
3:3:1
0:-1
0:2:1
-1:-1
0:4:1
-1:1
2:2:1
0:1
0:3:2
-1:-1
0:1:1
-1:-1
0:4:1
-1:1
0:3:1
-1:-1
1:2:1
-1:1
1:2:1
-1:-1
0:2:1
-1:-1
1:4:1
-1:1
0:1:1
-1:-1
0:4:1
-1:1
0:2:1
-1:1
0:4:1
-1:1
0:1:1
-1:1
0:1:1
-1:-1
0:2:1
-1:1
0:1:1
-1:-1
1:4:1
-1:1
0:3:1
-1:-1
0:2:1
-1:1
0:1:1
-1:-1
0:1:1
-1:1
0:2:1
-1:1
0:2:1
-1:1
0:2:1
-1:1
0:0:1
-1:-1
0:2:1
-1:-1
0:3:1
-1:1
0:3:1
-1:-1
0:1:1
-1:-1
1:2:1
-1:1
0:2:1
-1:1
0:2:1
-1:1
0:2:1
-1:1
1:2:1
-1:1
0:1:1
-1:-1
0:1:1
-1:-1
0:3:1
-1:1
0:2:1
-1:1
1:4:1
-1:1
1:2:1
-1:-1
0:2:1
-1:1
0:1:1
-1:-1
0:1:1
-1:-1
0:3:1
-1:1
0:1:1
-1:-1
0:3:1
-1:1
2:3:1
0:1
1:3:2
-1:-1
0:1:1
-1:-1
0:2:1
-1:-1
0:2:1
-1:1
0:6:1
-1:1
0:2:1
-1:1
0:2:1
-1:1
2:1:1
0:-1
0:2:1
-1:-1
0:2:1
-1:1
2:4:1
0:1
0:1:2
-1:-1
2:3:1
0:1
0:6:2
-1:0
0:1:1
-1:-1
1:1:1
-1:-1
1:2:1
-1:-1
1:4:1
-1:-1
4:1:1
1:-1
0:2:1
-1:1
0:2:1
-1:1
1:1:1
-1:-1
2:3:1
0:1
1:3:2
-1:-1
0:0:1
-1:-1
0:1:1
-1:-1
2:2:1
0:1
0:2:2
-1:0
0:2:1
-1:1
1:1:1
-1:-1
0:4:1
-1:-1
0:2:1
-1:-1
1:2:1
-1:-1
1:4:1
-1:-1
1:4:1
-1:-1
1:2:1
-1:-1
0:2:1
-1:1
0:1:1
-1:-1
0:2:1
-1:1
2:1:1
0:-1
3:2:1
0:-1
0:3:1
-1:-1
0:1:1
-1:-1
1:2:1
-1:1
0:2:1
-1:-1
0:3:1
-1:1
2:3:1
0:1
0:2:2
-1:-1
0:1:1
-1:1
2:2:1
0:1
0:2:2
-1:-1
0:4:1
-1:1
0:1:1
-1:-1
0:1:1
-1:-1
0:2:1
-1:1
1:1:1
-1:-1
0:1:1
-1:-1
0:1:1
-1:-1
0:2:1
-1:1
0:4:1
-1:1
1:1:1
-1:-1
0:4:1
-1:-1
1:2:1
-1:-1
0:2:1
-1:-1
0:2:1
-1:1
0:0:1
-1:-1
0:0:1
-1:-1
0:1:1
-1:-1
0:2:1
-1:1
0:1:1
-1:-1
0:2:1
-1:1
0:2:1
-1:1
0:2:1
-1:1
2:4:1
0:1
0:1:2
-1:-1
2:2:1
0:1
0:1:2
-1:0
0:1:1
-1:-1
2:3:1
0:-1
0:1:1
-1:-1
0:1:1
-1:-1
0:1:1
-1:-1
0:2:1
-1:1
0:1:1
-1:1
0:1:1
-1:-1
1:2:1
-1:1
0:2:1
-1:-1
1:2:1
-1:1
0:1:1
-1:-1
0:2:1
-1:1
0:2:1
-1:1
0:3:1
-1:1
4:1:1
1:-1
0:1:1
-1:-1
0:1:1
-1:-1
0:2:1
-1:1
0:4:1
-1:1
0:1:1
-1:-1
0:3:1
-1:1
0:5:1
-1:1
2:1:1
0:-1
0:2:1
-1:-1
1:1:1
-1:-1
0:1:1
-1:-1
0:2:1
-1:1
0:2:1
-1:1
2:1:1
0:-1
0:3:1
-1:1
0:2:1
-1:1
0:2:1
-1:1
0:2:1
-1:1
0:3:1
-1:1
0:1:1
-1:-1
0:2:1
-1:1
0:2:1
-1:1
0:2:1
-1:-1
0:1:1
-1:-1
0:2:1
-1:1
0:2:1
-1:-1
0:4:1
-1:1
2:2:1
0:1
0:2:2
-1:0
0:3:1
-1:-1
1:1:1
-1:-1
0:2:1
-1:-1
0:1:1
-1:-1
0:1:1
-1:-1
0:1:1
-1:-1
0:1:1
-1:-1
0:2:1
-1:1
1:1:1
-1:-1
1:3:1
-1:1
0:2:1
-1:-1
0:2:1
-1:1
0:1:1
-1:-1
0:2:1
-1:1
0:2:1
-1:1
0:2:1
-1:1
0:3:1
-1:1
0:2:1
-1:1
1:1:1
-1:-1
0:3:1
-1:1
0:2:1
-1:1
0:1:1
-1:-1
0:3:1
-1:1
0:1:1
-1:-1
0:2:1
-1:1
0:2:1
-1:1
0:2:1
-1:1
0:2:1
-1:-1
0:3:1
-1:-1
0:2:1
-1:1
0:2:1
-1:-1
0:1:1
-1:-1
0:2:1
-1:1
2:2:1
0:1
0:2:2
-1:0
0:2:1
-1:1
0:2:1
-1:1
0:1:1
-1:-1
0:1:1
-1:1
0:1:1
-1:-1
0:2:1
-1:1
0:0:1
-1:-1
0:1:1
-1:-1
0:2:1
-1:1
0:1:1
-1:-1
0:1:1
-1:-1
0:2:1
-1:1
0:0:1
-1:-1
0:3:1
-1:-1
0:1:1
-1:-1
1:3:1
-1:-1
2:3:1
0:-1
2:1:1
0:-1
0:2:1
-1:1
2:2:1
0:1
0:1:2
-1:-1
2:2:1
0:1
0:2:2
-1:-1
0:1:1
-1:-1
0:2:1
-1:1
0:1:1
-1:-1
0:4:1
-1:1
0:2:1
-1:1
0:16:1
-1:-1
0:1:1
-1:-1
0:1:1
-1:-1
0:2:1
-1:1
0:0:1
-1:-1
0:2:1
-1:-1
0:2:1
-1:1
0:2:1
-1:1
0:2:1
-1:1
0:2:1
-1:1
2:1:1
0:-1
0:1:1
-1:-1
2:2:1
0:1
0:2:2
-1:0
2:0:1
0:-1
0:1:1
-1:-1
0:0:1
-1:-1
2:1:1
0:-1
0:2:1
-1:-1
0:2:1
-1:1
0:0:1
-1:-1
2:1:1
0:-1
0:1:1
-1:-1
3:2:1
0:1
1:2:2
-1:-1
0:3:1
-1:-1
0:2:1
-1:1
0:1:1
-1:1
0:0:1
-1:-1
0:0:1
-1:-1
0:1:1
-1:-1
0:2:1
-1:-1
0:0:1
-1:-1
0:1:1
-1:-1
1:1:1
-1:-1
1:3:1
-1:-1
0:2:1
-1:1
0:2:1
-1:1
2:2:1
0:1
0:0:2
-1:-1
0:2:1
-1:1
0:3:1
-1:-1
0:2:1
-1:1
2:1:1
0:-1
0:1:1
-1:-1
0:4:1
-1:1
0:3:1
-1:1
0:2:1
-1:1
0:2:1
-1:1
0:4:1
-1:1
0:2:1
-1:1
0:2:1
-1:1
0:1:1
-1:-1
0:0:1
-1:-1
0:2:1
-1:1
1:2:1
-1:1
0:2:1
-1:-1
0:2:1
-1:1
1:5:1
-1:-1
2:3:1
0:-1
0:1:1
-1:-1
0:2:1
-1:1
0:2:1
-1:1
0:1:1
-1:-1
1:2:1
-1:1
0:2:1
-1:1
0:2:1
-1:1
1:1:1
-1:-1
0:2:1
-1:-1
0:0:1
-1:-1
0:1:1
-1:-1
2:2:1
0:-1
0:2:1
-1:-1
0:2:1
-1:1
0:1:1
-1:-1
1:3:1
-1:-1
2:2:1
0:-1
0:1:1
-1:-1
0:1:1
-1:-1
0:1:1
-1:-1
2:1:1
0:-1
0:1:1
-1:-1
1:2:1
-1:1
0:1:1
-1:-1
1:1:1
-1:-1
0:1:1
-1:-1
0:2:1
-1:1
0:2:1
-1:1
0:2:1
-1:1
0:2:1
-1:1
0:1:1
-1:-1
0:1:1
-1:-1
0:2:1
-1:1
0:1:1
-1:-1
0:3:1
-1:-1
3:7:1
0:-1
2:5:1
0:1
6:4:2
1:1
9:3:3
2:1
14:5:5
2:1
15:4:7
2:0
0:10:8
-1:-1
15:22:7
2:-1
4:21:7
1:0
4:23:8
1:0
15:24:9
2:1
14:29:11
2:1
0:24:12
-1:1
15:26:12
2:-1
14:26:12
2:0
0:32:12
-1:1
5:24:12
1:-1
9:27:12
2:1
8:28:12
2:-1
7:29:12
1:0
6:34:12
1:0
4:36:12
1:0
5:33:12
1:0
0:32:12
-1:-1
3:43:11
0:-1
0:31:11
-1:0
1:27:10
-1:-1
2:9:9
0:-1
10:13:9
2:-1
15:9:9
2:1
15:9:11
2:0
15:9:12
2:0
15:9:12
2:0
15:9:12
2:0
8:9:12
2:-1
15:9:12
2:0
15:9:12
2:0
15:9:12
2:0
15:9:12
2:0
15:9:12
2:0
12:12:12
2:0
8:7:12
2:-1
6:16:12
1:0
13:22:12
2:-1
2:8:12
0:-1
0:17:12
-1:-1
0:16:11
-1:-1
1:17:10
-1:-1
0:22:9
-1:-1
0:24:8
-1:-1
0:26:7
-1:-1
0:23:6
-1:-1
0:13:5
-1:0
0:3:4
-1:-1
1:7:3
-1:-1
0:4:2
-1:-1
13:14:1
2:-1
15:14:1
2:1
1:20:3
-1:1
15:23:3
2:1
14:21:5
2:1
15:25:7
2:1
15:24:9
2:0
3:20:10
0:1
12:20:11
2:0
3:25:12
0:1
14:22:12
2:0
5:28:12
1:1
2:13:12
0:-1
0:6:12
-1:-1
0:4:11
-1:-1
0:11:10
-1:-1
0:4:9
-1:-1
0:10:8
-1:-1
0:1:7
-1:-1
0:8:6
-1:-1
0:4:5
-1:-1
4:11:4
1:-1
1:13:4
-1:0
3:4:3
0:-1
0:5:3
-1:0
0:5:2
-1:-1
0:6:1
-1:1
0:4:1
-1:1
0:2:1
-1:-1
1:2:1
-1:1
0:2:1
-1:-1
1:4:1
-1:-1
2:6:1
0:1
0:3:2
-1:-1
0:1:1
-1:-1
2:2:1
0:1
0:3:2
-1:-1
0:1:1
-1:-1
0:4:1
-1:1
0:3:1
-1:1
0:4:1
-1:1
0:5:1
-1:1
0:4:1
-1:1
0:2:1
-1:1
0:4:1
-1:1
2:2:1
0:1
0:6:2
-1:-1
2:8:1
0:1
0:4:2
-1:-1
2:4:1
0:1
0:1:2
-1:-1
0:2:1
-1:1
2:1:1
0:-1
0:3:1
-1:-1
0:2:1
-1:1
0:2:1
-1:-1
0:4:1
-1:1
0:4:1
-1:1
0:2:1
-1:1
0:4:1
-1:1
0:2:1
-1:-1
0:1:1
-1:-1
2:5:1
0:1
0:0:2
-1:-1
2:3:1
0:-1
0:6:1
-1:1
0:1:1
-1:-1
0:2:1
-1:-1
0:4:1
-1:1
0:2:1
-1:1
1:2:1
-1:1
0:1:1
-1:-1
0:5:1
-1:1
0:5:1
-1:1
1:6:1
-1:1
0:10:1
-1:-1
0:2:1
-1:1
0:6:1
-1:1
0:4:1
-1:1
0:2:1
-1:1
2:2:1
0:1
0:2:2
-1:0
0:6:1
-1:1
2:2:1
0:1
0:2:2
-1:0
0:4:1
-1:1
0:3:1
-1:1
0:2:1
-1:1
0:2:1
-1:1
0:4:1
-1:1
2:2:1
0:1
4:2:2
1:-1
7:6:2
1:-1
0:1:2
-1:-1
0:2:1
-1:1
0:4:1
-1:1
0:4:1
-1:1
0:4:1
-1:1
4:1:1
1:-1
0:4:1
-1:-1
1:2:1
-1:1
1:5:1
-1:-1
0:1:1
-1:-1
2:2:1
0:1
0:1:2
-1:-1
0:3:1
-1:1
0:2:1
-1:-1
0:2:1
-1:1
0:2:1
-1:1
0:1:1
-1:-1
0:3:1
-1:1
0:1:1
-1:1
0:1:1
-1:-1
0:1:1
-1:-1
0:2:1
-1:1
0:3:1
-1:-1
0:3:1
-1:-1
1:2:1
-1:1
2:4:1
0:1
1:2:2
-1:0
0:6:1
-1:1
0:2:1
-1:1
0:2:1
-1:1
0:2:1
-1:1
0:2:1
-1:1
0:2:1
-1:1
2:4:1
0:1
2:4:2
0:-1
2:1:2
0:-1
2:4:2
0:0
0:2:2
-1:-1
0:1:1
-1:-1
2:2:1
0:1
1:1:2
-1:-1
0:1:1
-1:-1
0:4:1
-1:1
0:2:1
-1:1
2:2:1
0:1
0:1:2
-1:-1
0:4:1
-1:1
0:2:1
-1:1
0:3:1
-1:-1
0:1:1
-1:-1
0:1:1
-1:-1
0:2:1
-1:1
2:2:1
0:1
0:1:2
-1:-1
1:4:1
-1:-1
3:4:1
0:1
0:4:2
-1:-1
0:2:1
-1:1
0:3:1
-1:1
0:3:1
-1:1
1:3:1
-1:1
0:2:1
-1:1
0:3:1
-1:1
1:5:1
-1:1
0:3:1
-1:-1
0:1:1
-1:-1
0:1:1
-1:-1
0:4:1
-1:1
2:2:1
0:1
0:1:2
-1:-1
0:2:1
-1:1
0:3:1
-1:1
0:4:1
-1:1
0:4:1
-1:1
0:4:1
-1:1
0:2:1
-1:1
0:0:1
-1:-1
2:2:1
0:-1
0:1:1
-1:-1
0:2:1
-1:1
0:2:1
-1:1
1:2:1
-1:1
0:2:1
-1:1
0:2:1
-1:1
0:3:1
-1:1
0:4:1
-1:1
0:2:1
-1:-1
0:4:1
-1:1
0:10:1
-1:1
0:1:1
-1:-1
0:2:1
-1:1
0:2:1
-1:1
1:1:1
-1:-1
0:0:1
-1:-1
0:1:1
-1:-1
0:2:1
-1:1
0:2:1
-1:1
0:2:1
-1:1
0:2:1
-1:1
0:2:1
-1:1
0:2:1
-1:1
0:2:1
-1:1
0:4:1
-1:1
2:2:1
0:1
2:3:2
0:-1
2:1:2
0:-1
0:1:2
-1:-1
1:1:1
-1:-1
0:2:1
-1:-1
1:4:1
-1:1
0:2:1
-1:-1
0:1:1
-1:-1
0:2:1
-1:1
2:2:1
0:1
2:2:2
0:0
0:3:2
-1:-1
0:1:1
-1:-1
0:1:1
-1:-1
0:3:1
-1:-1
0:3:1
-1:-1
1:1:1
-1:-1
0:2:1
-1:-1
0:1:1
-1:-1
0:3:1
-1:1
0:2:1
-1:-1
0:2:1
-1:1
1:2:1
-1:1
0:4:1
-1:-1
0:4:1
-1:1
1:1:1
-1:-1
0:2:1
-1:-1
0:2:1
-1:1
0:2:1
-1:1
0:4:1
-1:1
2:2:1
0:1
4:3:2
1:-1
0:1:2
-1:-1
0:2:1
-1:1
0:3:1
-1:1
2:1:1
0:-1
0:2:1
-1:-1
0:2:1
-1:1
0:3:1
-1:1
1:3:1
-1:1
1:1:1
-1:-1
0:1:1
-1:-1
0:2:1
-1:1
0:4:1
-1:1
0:2:1
-1:1
0:1:1
-1:-1
2:1:1
0:-1
0:4:1
-1:1
0:2:1
-1:1
0:3:1
-1:1
0:1:1
-1:1
0:1:1
-1:-1
0:1:1
-1:-1
0:4:1
-1:1
0:4:1
-1:1
0:4:1
-1:-1
0:2:1
-1:1
0:2:1
-1:1
2:4:1
0:1
0:1:2
-1:-1
0:4:1
-1:1
0:3:1
-1:-1
0:2:1
-1:1
0:4:1
-1:1
0:2:1
-1:-1
0:4:1
-1:1
0:2:1
-1:1
0:1:1
-1:-1
0:3:1
-1:1
0:2:1
-1:1
0:2:1
-1:1
0:2:1
-1:1
2:1:1
0:-1
0:2:1
-1:-1
0:1:1
-1:-1
2:2:1
0:1
0:2:2
-1:0
0:1:1
-1:-1
0:2:1
-1:1
0:2:1
-1:1
1:4:1
-1:1
3:1:1
0:-1
0:2:1
-1:1
0:0:1
-1:-1
0:1:1
-1:-1
2:2:1
0:1
0:2:2
-1:0
0:0:1
-1:-1
0:0:1
-1:-1
0:1:1
-1:-1
0:4:1
-1:1
0:2:1
-1:1
0:2:1
-1:1
2:4:1
0:1
0:2:2
-1:0
0:4:1
-1:1
0:1:1
-1:-1
0:1:1
-1:-1
0:5:1
-1:-1
0:1:1
-1:-1
0:2:1
-1:1
0:1:1
-1:1
0:4:1
-1:1
0:2:1
-1:1
0:3:1
-1:-1
0:1:1
-1:-1
0:2:1
-1:1
0:2:1
-1:1
0:2:1
-1:1
0:2:1
-1:-1
0:3:1
-1:1
0:4:1
-1:1
0:1:1
-1:-1
2:3:1
0:1
0:1:2
-1:-1
2:2:1
0:1
2:4:2
0:-1
0:1:2
-1:-1
3:3:1
0:-1
0:2:1
-1:-1
0:4:1
-1:1
0:2:1
-1:1
0:2:1
-1:1
0:1:1
-1:-1
0:2:1
-1:1
0:4:1
-1:1
0:4:1
-1:1
0:1:1
-1:1
0:1:1
-1:-1
0:2:1
-1:1
2:3:1
0:-1
0:1:1
-1:-1
0:2:1
-1:1
1:2:1
-1:1
0:1:1
-1:-1
0:3:1
-1:-1
0:3:1
-1:-1
2:2:1
0:1
2:2:2
0:0
0:1:2
-1:-1
1:3:1
-1:1
0:4:1
-1:-1
0:2:1
-1:1
0:2:1
-1:1
3:2:1
0:1
0:2:2
-1:-1
4:1:1
1:-1
0:4:1
-1:-1
0:3:1
-1:-1
0:2:1
-1:1
0:2:1
-1:1
2:3:1
0:-1
0:1:1
-1:1
0:1:1
-1:-1
0:1:1
-1:-1
0:3:1
-1:1
0:1:1
-1:-1
0:1:1
-1:-1
0:2:1
-1:1
0:3:1
-1:1
2:1:1
0:-1
0:2:1
-1:1
0:2:1
-1:1
0:2:1
-1:1
0:4:1
-1:1
0:2:1
-1:1
0:2:1
-1:1
0:4:1
-1:1
0:2:1
-1:1
0:2:1
-1:1
0:1:1
-1:-1
0:4:1
-1:1
2:1:1
0:-1
1:1:1
-1:-1
0:4:1
-1:-1
0:2:1
-1:1
0:1:1
-1:-1
1:1:1
-1:-1
0:4:1
-1:-1
0:1:1
-1:1
0:2:1
-1:-1
0:1:1
-1:1
0:1:1
-1:-1
0:2:1
-1:1
0:2:1
-1:1
0:2:1
-1:1
2:2:1
0:1
2:1:2
0:-1
0:2:2
-1:-1
0:1:1
-1:-1
0:3:1
-1:1
0:1:1
-1:-1
0:1:1
-1:-1
0:1:1
-1:1
0:3:1
-1:-1
0:1:1
-1:-1
0:2:1
-1:-1
0:2:1
-1:1
0:1:1
-1:-1
1:2:1
-1:1
2:2:1
0:-1
0:1:1
-1:-1
0:1:1
-1:1
0:0:1
-1:-1
0:3:1
-1:-1
0:2:1
-1:1
0:0:1
-1:-1
0:1:1
-1:-1
0:2:1
-1:1
2:3:1
0:1
0:1:2
-1:-1
0:2:1
-1:1
0:1:1
-1:-1
0:2:1
-1:1
0:1:1
-1:-1
0:2:1
-1:1
0:2:1
-1:-1
0:2:1
-1:1
0:1:1
-1:-1
0:4:1
-1:1
0:2:1
-1:1
0:2:1
-1:1
0:2:1
-1:1
0:2:1
-1:1
2:3:1
0:1
0:1:2
-1:-1
0:1:1
-1:-1
0:2:1
-1:1
0:3:1
-1:-1
0:2:1
-1:1
0:2:1
-1:1
0:3:1
-1:-1
0:14:1
-1:1
0:7:1
-1:1
0:1:1
-1:-1
0:3:1
-1:1
0:1:1
-1:1
0:1:1
-1:-1
0:2:1
-1:1
0:2:1
-1:1
0:4:1
-1:1
0:4:1
-1:1
0:1:1
-1:1
2:1:1
0:-1
0:2:1
-1:1
2:1:1
0:-1
0:3:1
-1:-1
0:1:1
-1:-1
0:1:1
-1:-1
0:1:1
-1:-1
2:3:1
0:1
0:2:2
-1:-1
0:2:1
-1:1
0:2:1
-1:-1
0:2:1
-1:1
0:2:1
-1:1
0:1:1
-1:-1
0:2:1
-1:1
0:2:1
-1:1
1:1:1
-1:-1
0:2:1
-1:1
0:2:1
-1:1
0:2:1
-1:-1
1:2:1
-1:1
0:1:1
-1:-1
0:2:1
-1:1
1:2:1
-1:1
0:2:1
-1:-1
0:2:1
-1:1
0:1:1
-1:1
2:1:1
0:-1
0:1:1
-1:-1
0:2:1
-1:1
0:2:1
-1:1
0:1:1
-1:-1
0:3:1
-1:1
0:1:1
-1:-1
0:1:1
-1:-1
0:2:1
-1:1
0:2:1
-1:1
0:2:1
-1:1
0:2:1
-1:1
0:2:1
-1:1
0:3:1
-1:1
0:2:1
-1:1
0:1:1
-1:-1
0:2:1
-1:1
2:2:1
0:1
1:2:2
-1:-1
2:2:1
0:-1
1:3:1
-1:-1
0:2:1
-1:-1
0:1:1
-1:-1
1:2:1
-1:1
0:1:1
-1:-1
0:2:1
-1:1
0:3:1
-1:-1
0:2:1
-1:1
2:1:1
0:-1
2:1:1
0:-1
0:2:1
-1:-1
0:1:1
-1:-1
0:1:1
-1:-1
0:1:1
-1:-1
0:3:1
-1:1
0:4:1
-1:1
1:1:1
-1:-1
0:1:1
-1:-1
0:2:1
-1:-1
0:1:1
-1:-1
1:4:1
-1:1
0:3:1
-1:-1
1:2:1
-1:1
1:1:1
-1:-1
0:2:1
-1:-1
0:2:1
-1:1
0:2:1
-1:1
0:0:1
-1:-1
0:0:1
-1:-1
0:1:1
-1:-1
0:0:1
-1:-1
0:1:1
-1:-1
0:1:1
-1:-1
0:1:1
-1:-1
0:1:1
-1:-1
0:1:1
-1:1
0:1:1
-1:-1
0:2:1
-1:1
0:2:1
-1:1
0:0:1
-1:-1
0:1:1
-1:-1
0:2:1
-1:1
0:2:1
-1:1
0:1:1
-1:1
0:0:1
-1:-1
0:1:1
-1:-1
0:0:1
-1:-1
0:0:1
-1:-1
0:1:1
-1:-1
0:2:1
-1:1
0:2:1
-1:-1
0:1:1
-1:-1
0:2:1
-1:1
0:2:1
-1:1
0:1:1
-1:-1
0:3:1
-1:-1
1:1:1
-1:1
0:1:1
-1:-1
5:9:1
1:-1
8:3:1
2:1
0:1:3
-1:-1
4:4:2
1:1
7:3:3
1:1
11:4:4
2:1
15:5:6
2:0
0:5:7
-1:0
4:13:6
1:-1
13:18:6
2:0
5:22:7
1:0
0:18:8
-1:0
15:25:7
2:-1
15:34:7
2:1
6:31:9
1:1
0:28:10
-1:1
15:29:10
2:-1
0:27:10
-1:0
0:18:9
-1:-1
9:32:8
2:-1
7:27:8
1:0
2:25:9
0:1
3:36:10
0:0
0:35:10
-1:0
3:35:9
0:-1
4:36:9
1:-1
4:36:9
1:-1
0:35:9
-1:-1
0:20:8
-1:-1
0:12:7
-1:-1
9:14:6
2:0
15:9:7
2:1
15:9:9
2:1
15:9:11
2:0
15:9:12
2:0
15:9:12
2:0
7:9:12
1:-1
15:9:12
2:0
15:9:12
2:0
15:9:12
2:0
15:9:12
2:0
15:9:12
2:0
12:12:12
2:0
8:8:12
2:-1
6:16:12
1:0
0:24:12
-1:-1
0:22:11
-1:-1
4:6:10
1:-1
1:12:10
-1:0
2:20:9
0:-1
3:19:9
0:-1
0:21:9
-1:0
0:25:8
-1:-1
1:23:7
-1:-1
0:10:6
-1:-1
0:3:5
-1:-1
1:7:4
-1:-1
0:4:3
-1:-1
13:14:2
2:-1
15:15:2
2:1
2:19:4
0:0
15:24:4
2:1
14:18:6
2:0
15:26:7
2:1
15:24:9
2:0
3:19:10
0:1
12:20:11
2:0
3:25:12
0:1
14:22:12
2:0
5:28:12
1:1
6:19:12
1:-1
0:5:12
-1:-1
5:4:11
1:-1
3:2:11
0:-1
2:7:11
0:-1
0:7:11
-1:-1
1:11:10
-1:-1
4:13:9
1:0
0:9:10
-1:-1
3:4:9
0:-1
0:7:9
-1:-1
0:2:8
-1:-1
0:5:7
-1:-1
0:8:6
-1:-1
1:3:5
-1:-1
3:3:4
0:0
0:7:4
-1:0
0:4:3
-1:0
5:3:2
1:-1
0:3:2
-1:-1
2:3:1
0:1
0:6:2
-1:0
0:4:1
-1:1
0:3:1
-1:1
5:4:1
1:-1
0:2:1
-1:-1
0:4:1
-1:1
0:4:1
-1:1
0:1:1
-1:-1
0:4:1
-1:1
1:4:1
-1:1
0:1:1
-1:-1
1:5:1
-1:-1
0:3:1
-1:-1
2:1:1
0:-1
1:2:1
-1:-1
0:3:1
-1:-1
0:4:1
-1:1
2:1:1
0:-1
0:3:1
-1:1
0:3:1
-1:-1
0:4:1
-1:1
0:4:1
-1:1
0:4:1
-1:1
0:0:1
-1:-1
0:1:1
-1:-1
0:6:1
-1:1
0:1:1
-1:-1
0:1:1
-1:-1
0:2:1
-1:1
2:4:1
0:1
0:3:2
-1:-1
0:1:1
-1:-1
0:4:1
-1:1
0:2:1
-1:1
0:4:1
-1:1
0:2:1
-1:1
0:3:1
-1:-1
1:3:1
-1:1
0:1:1
-1:-1
0:2:1
-1:1
0:2:1
-1:1
0:3:1
-1:-1
0:4:1
-1:1
0:3:1
-1:-1
0:4:1
-1:1
0:4:1
-1:1
0:3:1
-1:1
0:2:1
-1:1
0:4:1
-1:1
0:1:1
-1:-1
0:2:1
-1:1
1:5:1
-1:1
0:2:1
-1:1
0:7:1
-1:1
0:2:1
-1:1
0:1:1
-1:-1
2:3:1
0:1
0:4:2
-1:-1
0:1:1
-1:-1
2:4:1
0:1
0:2:2
-1:0
0:3:1
-1:-1
0:2:1
-1:1
2:4:1
0:1
0:2:2
-1:0
1:4:1
-1:-1
2:2:1
0:1
0:2:2
-1:-1
1:5:1
-1:1
0:5:1
-1:-1
2:3:1
0:1
0:4:2
-1:-1
3:1:1
0:-1
2:4:1
0:1
0:3:2
-1:-1
2:3:1
0:1
0:4:2
-1:-1
2:4:1
0:1
0:2:2
-1:0
0:6:1
-1:1
2:4:1
0:1
0:4:2
-1:-1
0:1:1
-1:1
0:2:1
-1:-1
0:2:1
-1:1
0:1:1
-1:-1
0:4:1
-1:1
0:1:1
-1:-1
2:4:1
0:1
0:2:2
-1:0
0:1:1
-1:-1
1:2:1
-1:1
0:3:1
-1:-1
0:2:1
-1:1
1:2:1
-1:1
0:4:1
-1:-1
0:1:1
-1:-1
2:1:1
0:-1
0:3:1
-1:-1
2:2:1
0:1
0:4:2
-1:0
0:1:1
-1:-1
0:4:1
-1:1
0:2:1
-1:1
0:1:1
-1:-1
0:1:1
-1:-1
2:3:1
0:1
0:1:2
-1:-1
1:2:1
-1:1
0:2:1
-1:-1
2:2:1
0:1
3:2:2
0:0
0:2:2
-1:-1
2:2:1
0:1
2:1:2
0:-1
0:2:2
-1:0
0:2:1
-1:1
0:2:1
-1:1
0:4:1
-1:1
0:2:1
-1:1
0:1:1
-1:-1
0:2:1
-1:1
0:2:1
-1:1
0:1:1
-1:-1
0:2:1
-1:1
0:4:1
-1:1
0:1:1
-1:-1
2:2:1
0:1
2:2:2
0:0
0:1:2
-1:-1
4:2:1
1:1
0:2:2
-1:-1
1:1:1
-1:-1
0:2:1
-1:1
0:1:1
-1:-1
0:2:1
-1:1
0:4:1
-1:1
0:4:1
-1:1
0:2:1
-1:1
0:2:1
-1:1
0:0:1
-1:-1
0:3:1
-1:-1
0:2:1
-1:1
0:4:1
-1:1
0:3:1
-1:1
0:2:1
-1:1
0:4:1
-1:1
0:11:1
-1:1
0:2:1
-1:-1
0:1:1
-1:-1
0:2:1
-1:1
0:2:1
-1:-1
0:1:1
-1:-1
0:4:1
-1:1
0:2:1
-1:1
0:2:1
-1:-1
0:5:1
-1:1
0:3:1
-1:-1
0:1:1
-1:-1
0:4:1
-1:1
2:4:1
0:1
0:2:2
-1:-1
0:4:1
-1:1
0:2:1
-1:1
0:2:1
-1:1
0:3:1
-1:1
0:6:1
-1:1
0:1:1
-1:-1
0:4:1
-1:1
0:2:1
-1:1
1:4:1
-1:1
0:1:1
-1:-1
0:4:1
-1:1
2:2:1
0:1
0:4:2
-1:-1
0:1:1
-1:-1
1:2:1
-1:-1
0:4:1
-1:1
0:2:1
-1:1
0:3:1
-1:-1
0:2:1
-1:-1
0:3:1
-1:1
2:1:1
0:-1
0:2:1
-1:1
0:2:1
-1:1
0:2:1
-1:1
0:2:1
-1:1
0:3:1
-1:1
0:3:1
-1:-1
0:2:1
-1:1
0:1:1
-1:-1
0:3:1
-1:-1
2:2:1
0:1
1:2:2
-1:-1
0:3:1
-1:-1
0:1:1
-1:-1
0:4:1
-1:1
0:2:1
-1:1
0:1:1
-1:-1
0:2:1
-1:1
0:2:1
-1:1
0:4:1
-1:1
2:1:1
0:-1
0:2:1
-1:1
0:2:1
-1:1
2:3:1
0:1
0:1:2
-1:-1
0:3:1
-1:1
2:2:1
0:1
2:1:2
0:-1
4:3:2
1:-1
0:2:2
-1:-1
0:2:1
-1:1
0:1:1
-1:-1
0:2:1
-1:1
0:2:1
-1:1
0:2:1
-1:1
0:4:1
-1:1
0:1:1
-1:-1
0:1:1
-1:-1
0:2:1
-1:1
2:3:1
0:1
0:4:2
-1:0
0:2:1
-1:1
0:2:1
-1:1
0:2:1
-1:1
0:1:1
-1:-1
0:3:1
-1:1
1:3:1
-1:1
2:2:1
0:-1
1:2:1
-1:1
0:1:1
-1:-1
0:3:1
-1:1
0:3:1
-1:-1
0:2:1
-1:1
1:2:1
-1:1
2:4:1
0:-1
0:3:1
-1:-1
0:2:1
-1:1
0:1:1
-1:-1
0:3:1
-1:-1
0:4:1
-1:1
2:2:1
0:1
2:1:2
0:-1
0:1:2
-1:-1
0:1:1
-1:-1
0:1:1
-1:-1
0:1:1
-1:-1
0:3:1
-1:1
2:1:1
0:-1
2:4:1
0:-1
0:4:1
-1:-1
0:3:1
-1:1
0:4:1
-1:1
0:1:1
-1:-1
0:1:1
-1:1
0:0:1
-1:-1
0:3:1
-1:-1
0:2:1
-1:1
0:1:1
-1:-1
0:1:1
-1:-1
0:3:1
-1:-1
0:2:1
-1:1
0:1:1
-1:-1
0:2:1
-1:1
0:2:1
-1:1
1:2:1
-1:-1
0:3:1
-1:-1
0:2:1
-1:1
0:2:1
-1:1
0:2:1
-1:1
2:4:1
0:1
2:2:2
0:0
2:2:2
0:0
0:4:2
-1:-1
0:4:1
-1:1
1:3:1
-1:1
0:1:1
-1:-1
0:5:1
-1:-1
0:2:1
-1:1
0:2:1
-1:-1
0:2:1
-1:1
0:1:1
-1:-1
2:4:1
0:1
0:1:2
-1:-1
0:3:1
-1:1
0:1:1
-1:-1
2:2:1
0:1
0:1:2
-1:-1
0:3:1
-1:1
0:1:1
-1:-1
0:1:1
-1:-1
2:2:1
0:-1
0:1:1
-1:-1
1:0:1
-1:-1
0:1:1
-1:-1
1:3:1
-1:-1
0:2:1
-1:-1
2:2:1
0:1
2:3:2
0:-1
0:2:2
-1:0
0:4:1
-1:1
0:1:1
-1:-1
0:1:1
-1:-1
0:1:1
-1:-1
0:2:1
-1:1
0:2:1
-1:-1
0:3:1
-1:1
0:2:1
-1:1
2:2:1
0:-1
0:1:1
-1:-1
0:1:1
-1:-1
1:2:1
-1:1
1:1:1
-1:-1
0:1:1
-1:-1
0:1:1
-1:1
0:1:1
-1:-1
1:2:1
-1:-1
2:4:1
0:-1
0:2:1
-1:1
1:2:1
-1:-1
0:1:1
-1:-1
0:2:1
-1:-1
0:1:1
-1:-1
0:3:1
-1:-1
0:2:1
-1:1
0:2:1
-1:1
0:17:1
-1:1
0:0:1
-1:-1
0:2:1
-1:1
0:2:1
-1:-1
0:4:1
-1:-1
0:2:1
-1:1
4:3:1
1:1
0:2:2
-1:-1
0:2:1
-1:1
2:2:1
0:1
0:3:2
-1:-1
2:1:1
0:-1
4:3:1
1:-1
2:1:1
0:-1
0:4:1
-1:1
0:2:1
-1:1
0:3:1
-1:1
0:2:1
-1:1
0:3:1
-1:-1
0:1:1
-1:-1
1:4:1
-1:1
0:1:1
-1:-1
0:1:1
-1:-1
0:2:1
-1:1
0:2:1
-1:1
0:1:1
-1:-1
0:1:1
-1:-1
0:2:1
-1:1
0:2:1
-1:1
0:3:1
-1:-1
0:4:1
-1:1
2:4:1
0:1
0:2:2
-1:-1
0:2:1
-1:1
0:1:1
-1:-1
0:1:1
-1:-1
0:2:1
-1:1
0:3:1
-1:-1
0:1:1
-1:-1
0:1:1
-1:-1
0:4:1
-1:1
1:2:1
-1:1
0:4:1
-1:1
0:1:1
-1:1
2:1:1
0:-1
0:2:1
-1:1
0:1:1
-1:1
0:1:1
-1:-1
0:2:1
-1:1
0:2:1
-1:1
0:2:1
-1:1
0:1:1
-1:-1
0:2:1
-1:1
0:0:1
-1:-1
0:1:1
-1:-1
0:4:1
-1:1
0:1:1
-1:-1
0:1:1
-1:-1
0:1:1
-1:-1
0:4:1
-1:1
0:2:1
-1:1
0:1:1
-1:1
0:2:1
-1:-1
0:1:1
-1:-1
0:1:1
-1:-1
0:2:1
-1:1
0:4:1
-1:1
0:2:1
-1:1
0:1:1
-1:-1
0:2:1
-1:1
0:4:1
-1:1
0:2:1
-1:1
0:2:1
-1:1
0:1:1
-1:-1
2:1:1
0:-1
0:2:1
-1:-1
0:2:1
-1:1
0:2:1
-1:-1
0:3:1
-1:1
0:4:1
-1:1
2:4:1
0:1
0:1:2
-1:-1
0:2:1
-1:1
0:1:1
-1:1
0:1:1
-1:-1
0:2:1
-1:1
3:1:1
0:-1
0:1:1
-1:-1
0:4:1
-1:1
0:2:1
-1:1
0:3:1
-1:-1
0:1:1
-1:-1
0:2:1
-1:-1
0:1:1
-1:1
0:1:1
-1:-1
0:3:1
-1:-1
0:0:1
-1:-1
0:0:1
-1:-1
0:2:1
-1:1
0:1:1
-1:-1
0:4:1
-1:1
0:2:1
-1:1
0:1:1
-1:-1
0:2:1
-1:-1
0:2:1
-1:1
2:2:1
0:-1
1:1:1
-1:-1
0:1:1
-1:-1
0:1:1
-1:-1
1:2:1
-1:1
0:0:1
-1:-1
0:2:1
-1:1
1:3:1
-1:-1
0:1:1
-1:-1
1:1:1
-1:-1
0:2:1
-1:1
0:1:1
-1:1
0:1:1
-1:-1
0:1:1
-1:-1
0:4:1
-1:1
1:2:1
-1:1
0:4:1
-1:-1
0:1:1
-1:-1
2:2:1
0:1
3:1:2
0:-1
0:2:2
-1:0
0:2:1
-1:1
0:1:1
-1:-1
0:4:1
-1:1
0:2:1
-1:1
2:1:1
0:-1
0:1:1
-1:-1
0:2:1
-1:1
0:1:1
-1:-1
2:2:1
0:1
0:1:2
-1:-1
2:2:1
0:1
4:2:2
1:-1
0:0:2
-1:-1
0:1:1
-1:-1
0:1:1
-1:-1
0:1:1
-1:1
1:1:1
-1:-1
0:2:1
-1:-1
0:2:1
-1:1
0:2:1
-1:1
0:4:1
-1:1
0:4:1
-1:1
0:1:1
-1:-1
0:2:1
-1:1
2:2:1
0:1
0:1:2
-1:-1
1:2:1
-1:1
0:2:1
-1:-1
0:1:1
-1:-1
0:0:1
-1:-1
0:3:1
-1:-1
0:2:1
-1:1
0:2:1
-1:1
0:1:1
-1:-1
0:1:1
-1:1
2:1:1
0:-1
4:1:1
1:-1
0:2:1
-1:1
0:0:1
-1:-1
0:3:1
-1:-1
0:2:1
-1:1
2:2:1
0:1
0:2:2
-1:0
2:2:1
0:1
0:1:2
-1:-1
0:2:1
-1:1
0:1:1
-1:-1
0:1:1
-1:1
0:1:1
-1:-1
4:2:1
1:1
0:2:2
-1:-1
0:2:1
-1:-1
0:1:1
-1:-1
2:2:1
0:1
0:2:2
-1:0
4:3:1
1:-1
0:2:1
-1:-1
0:2:1
-1:1
0:4:1
-1:1
0:1:1
-1:1
0:1:1
-1:-1
0:2:1
-1:1
0:4:1
-1:1
0:2:1
-1:1
0:2:1
-1:1
2:1:1
0:-1
0:0:1
-1:-1
0:1:1
-1:-1
0:1:1
-1:-1
0:2:1
-1:1
0:1:1
-1:-1
0:2:1
-1:1
0:2:1
-1:1
0:3:1
-1:1
0:2:1
-1:1
0:2:1
-1:1
0:3:1
-1:-1
0:2:1
-1:1
0:2:1
-1:1
0:1:1
-1:1
0:1:1
-1:-1
0:4:1
-1:1
2:2:1
0:1
0:3:2
-1:0
0:2:1
-1:1
2:1:1
0:-1
0:1:1
-1:-1
0:1:1
-1:-1
0:1:1
-1:-1
0:1:1
-1:-1
0:1:1
-1:-1
0:1:1
-1:-1
1:3:1
-1:-1
0:1:1
-1:-1
0:4:1
-1:-1
9:9:1
2:1
0:2:3
-1:0
4:4:2
1:1
8:4:3
2:1
12:4:5
2:0
15:6:6
2:1
2:11:8
0:-1
13:18:8
2:-1
9:22:8
2:1
15:23:10
2:0
15:31:11
2:0
8:28:12
2:1
2:27:12
0:1
15:24:12
2:0
7:26:12
1:1
6:29:12
1:1
0:13:12
-1:-1
15:29:11
2:-1
8:28:11
2:-1
3:35:11
0:0
7:36:11
1:0
2:34:12
0:-1
6:31:12
1:0
4:26:12
1:-1
3:39:12
0:-1
0:45:12
-1:-1
0:13:11
-1:-1
0:31:10
-1:0
3:14:9
0:-1
12:9:9
2:1
15:9:11
2:0
15:9:12
2:0
15:9:12
2:0
15:9:12
2:0
0:8:12
-1:0
10:10:11
2:1
15:9:12
2:0
15:9:12
2:0
15:9:12
2:0
15:9:12
2:0
15:9:12
2:0
0:9:12
-1:0
0:13:11
-1:1
0:13:11
-1:-1
0:23:10
-1:-1
0:22:9
-1:-1
1:16:8
-1:-1
3:13:7
0:-1
0:17:7
-1:0
0:30:6
-1:-1
0:21:5
-1:-1
0:27:4
-1:-1
0:13:3
-1:-1
0:4:2
-1:-1
0:8:1
-1:1
1:4:1
-1:-1
1:6:1
-1:-1
0:4:1
-1:-1
0:4:1
-1:-1
0:1:1
-1:-1
2:10:1
0:-1
0:5:1
-1:1
0:7:1
-1:1
0:5:1
-1:-1
1:3:1
-1:1
1:4:1
-1:-1
0:5:1
-1:-1
0:5:1
-1:-1
0:6:1
-1:1
0:2:1
-1:1
0:5:1
-1:1
0:6:1
-1:1
0:2:1
-1:-1
0:6:1
-1:1
0:4:1
-1:1
2:4:1
0:1
0:4:2
-1:0
0:5:1
-1:1
0:3:1
-1:-1
0:3:1
-1:1
0:3:1
-1:-1
0:2:1
-1:1
2:2:1
0:1
2:1:2
0:-1
0:1:2
-1:-1
0:1:1
-1:-1
0:2:1
-1:1
0:4:1
-1:1
0:4:1
-1:1
0:4:1
-1:1
0:2:1
-1:1
2:3:1
0:1
2:3:2
0:-1
0:2:2
-1:-1
2:1:1
0:-1
0:4:1
-1:-1
2:2:1
0:1
0:4:2
-1:-1
2:2:1
0:1
0:3:2
-1:-1
0:3:1
-1:-1
0:3:1
-1:1
1:2:1
-1:1
0:4:1
-1:-1
0:2:1
-1:-1
1:4:1
-1:1
0:2:1
-1:1
1:4:1
-1:1
0:2:1
-1:-1
2:3:1
0:1
2:3:2
0:0
0:3:2
-1:-1
0:2:1
-1:1
0:1:1
-1:-1
1:2:1
-1:1
0:3:1
-1:-1
0:4:1
-1:1
0:2:1
-1:-1
0:2:1
-1:-1
1:1:1
-1:-1
0:1:1
-1:-1
2:2:1
0:1
0:1:2
-1:-1
0:4:1
-1:1
0:1:1
-1:-1
0:2:1
-1:1
0:3:1
-1:1
0:2:1
-1:1
0:4:1
-1:1
2:2:1
0:1
0:1:2
-1:0
0:1:1
-1:-1
0:4:1
-1:1
0:2:1
-1:1
1:2:1
-1:1
0:3:1
-1:-1
0:2:1
-1:1
0:3:1
-1:1
2:4:1
0:1
2:2:2
0:0
0:2:2
-1:-1
0:2:1
-1:1
0:2:1
-1:1
0:4:1
-1:1
0:4:1
-1:1
0:4:1
-1:1
0:4:1
-1:1
0:2:1
-1:1
0:2:1
-1:1
0:2:1
-1:1
0:4:1
-1:1
2:2:1
0:1
0:2:2
-1:-1
2:3:1
0:-1
0:1:1
-1:-1
0:2:1
-1:1
2:2:1
0:1
0:2:2
-1:0
0:2:1
-1:1
0:6:1
-1:1
0:2:1
-1:1
0:2:1
-1:1
0:3:1
-1:1
0:4:1
-1:1
2:2:1
0:1
0:2:2
-1:-1
0:2:1
-1:1
0:1:1
-1:-1
0:2:1
-1:1
0:2:1
-1:1
0:2:1
-1:1
1:5:1
-1:1
0:1:1
-1:-1
0:3:1
-1:1
0:2:1
-1:1
0:2:1
-1:-1
0:2:1
-1:1
0:2:1
-1:1
1:1:1
-1:-1
0:3:1
-1:-1
0:2:1
-1:1
0:4:1
-1:1
1:2:1
-1:1
0:2:1
-1:-1
0:2:1
-1:1
0:4:1
-1:1
0:2:1
-1:1
2:3:1
0:-1
0:2:1
-1:-1
0:3:1
-1:1
0:3:1
-1:-1
0:2:1
-1:1
1:3:1
-1:-1
2:1:1
0:-1
0:3:1
-1:1
2:2:1
0:1
0:2:2
-1:-1
0:4:1
-1:1
0:4:1
-1:1
0:4:1
-1:1
0:2:1
-1:1
0:1:1
-1:-1
0:2:1
-1:1
0:1:1
-1:-1
2:2:1
0:1
0:4:2
-1:0
0:4:1
-1:1
1:3:1
-1:1
0:2:1
-1:-1
2:3:1
0:-1
0:3:1
-1:-1
0:2:1
-1:1
0:1:1
-1:1
0:3:1
-1:-1
2:2:1
0:1
0:4:2
-1:-1
0:0:1
-1:-1
0:2:1
-1:1
0:6:1
-1:1
0:2:1
-1:1
0:2:1
-1:1
0:3:1
-1:-1
0:1:1
-1:-1
0:2:1
-1:1
1:3:1
-1:-1
0:3:1
-1:-1
0:2:1
-1:1
0:1:1
-1:-1
2:4:1
0:1
2:2:2
0:0
0:4:2
-1:0
0:1:1
-1:-1
0:2:1
-1:-1
0:2:1
-1:1
0:3:1
-1:1
2:2:1
0:1
0:1:2
-1:-1
0:2:1
-1:1
0:4:1
-1:1
0:2:1
-1:1
0:4:1
-1:1
0:7:1
-1:1
0:1:1
-1:-1
0:2:1
-1:1
2:1:1
0:-1
0:1:1
-1:-1
0:0:1
-1:-1
0:3:1
-1:-1
0:1:1
-1:-1
0:2:1
-1:1
0:3:1
-1:1
0:2:1
-1:1
0:3:1
-1:1
0:2:1
-1:1
2:4:1
0:1
0:3:2
-1:-1
0:4:1
-1:1
1:2:1
-1:1
2:2:1
0:-1
0:4:1
-1:1
0:2:1
-1:1
0:2:1
-1:1
0:1:1
-1:-1
2:2:1
0:1
0:1:2
-1:-1
0:1:1
-1:-1
0:2:1
-1:1
0:2:1
-1:-1
0:4:1
-1:-1
1:2:1
-1:1
0:3:1
-1:-1
1:2:1
-1:-1
0:2:1
-1:1
0:2:1
-1:1
0:4:1
-1:1
0:1:1
-1:1
0:2:1
-1:1
0:1:1
-1:-1
2:4:1
0:1
0:1:2
-1:-1
2:3:1
0:-1
0:4:1
-1:1
0:2:1
-1:1
0:4:1
-1:1
0:1:1
-1:1
0:3:1
-1:-1
0:2:1
-1:1
0:2:1
-1:1
0:1:1
-1:-1
0:3:1
-1:-1
0:1:1
-1:-1
0:2:1
-1:-1
0:1:1
-1:-1
0:2:1
-1:1
0:2:1
-1:1
0:4:1
-1:1
0:4:1
-1:1
0:2:1
-1:1
0:3:1
-1:-1
0:1:1
-1:-1
0:4:1
-1:-1
1:2:1
-1:1
0:5:1
-1:-1
0:1:1
-1:-1
0:1:1
-1:-1
0:1:1
-1:1
0:1:1
-1:-1
0:0:1
-1:-1
0:4:1
-1:1
0:2:1
-1:1
0:3:1
-1:1
0:2:1
-1:1
2:2:1
0:1
0:1:2
-1:-1
0:1:1
-1:-1
1:3:1
-1:-1
2:1:1
0:-1
0:4:1
-1:-1
0:2:1
-1:1
0:1:1
-1:-1
0:0:1
-1:-1
0:3:1
-1:-1
0:2:1
-1:1
0:2:1
-1:1
0:3:1
-1:1
0:2:1
-1:1
0:2:1
-1:1
0:1:1
-1:-1
0:1:1
-1:-1
0:2:1
-1:1
0:2:1
-1:1
0:1:1
-1:-1
0:2:1
-1:1
0:2:1
-1:1
0:1:1
-1:-1
0:2:1
-1:1
1:4:1
-1:1
0:2:1
-1:1
0:2:1
-1:1
0:2:1
-1:1
0:4:1
-1:1
0:2:1
-1:1
0:1:1
-1:-1
2:2:1
0:1
0:2:2
-1:0
0:3:1
-1:1
0:2:1
-1:1
0:2:1
-1:1
0:2:1
-1:1
0:2:1
-1:1
0:1:1
-1:-1
0:2:1
-1:1
0:4:1
-1:-1
0:2:1
-1:1
0:3:1
-1:1
0:1:1
-1:-1
0:2:1
-1:1
0:4:1
-1:1
0:0:1
-1:-1
0:1:1
-1:-1
0:3:1
-1:1
0:2:1
-1:1
0:3:1
-1:1
0:2:1
-1:-1
0:2:1
-1:1
0:2:1
-1:1
2:5:1
0:1
0:3:2
-1:-1
0:3:1
-1:1
0:0:1
-1:-1
0:2:1
-1:1
1:1:1
-1:-1
0:2:1
-1:1
0:2:1
-1:1
0:4:1
-1:1
0:2:1
-1:1
0:3:1
-1:-1
4:3:1
1:1
0:1:2
-1:-1
0:2:1
-1:1
2:4:1
0:1
0:1:2
-1:-1
0:1:1
-1:-1
2:3:1
0:-1
0:1:1
-1:-1
0:1:1
-1:1
0:1:1
-1:-1
0:1:1
-1:-1
0:1:1
-1:-1
0:3:1
-1:-1
0:1:1
-1:-1
0:2:1
-1:1
1:3:1
-1:1
0:1:1
-1:-1
0:2:1
-1:1
2:2:1
0:1
0:1:2
-1:-1
0:1:1
-1:-1
0:2:1
-1:1
2:4:1
0:1
2:6:2
0:0
0:2:2
-1:-1
0:2:1
-1:1
2:3:1
0:1
0:1:2
-1:-1
0:4:1
-1:1
2:2:1
0:1
0:2:2
-1:0
0:1:1
-1:1
1:4:1
-1:1
0:2:1
-1:1
0:1:1
-1:-1
0:2:1
-1:1
2:2:1
0:-1
0:3:1
-1:-1
1:1:1
-1:-1
0:2:1
-1:-1
1:1:1
-1:-1
0:3:1
-1:-1
0:2:1
-1:1
0:2:1
-1:1
0:1:1
-1:-1
2:3:1
0:1
0:2:2
-1:0
0:2:1
-1:1
0:2:1
-1:1
0:2:1
-1:1
0:3:1
-1:1
0:1:1
-1:-1
0:2:1
-1:1
0:1:1
-1:-1
2:3:1
0:-1
0:3:1
-1:1
5:2:1
1:1
0:2:2
-1:-1
0:4:1
-1:1
0:2:1
-1:1
2:1:1
0:-1
0:1:1
-1:-1
0:2:1
-1:1
0:2:1
-1:1
0:1:1
-1:-1
0:2:1
-1:1
0:1:1
-1:-1
0:4:1
-1:1
0:1:1
-1:-1
1:2:1
-1:1
0:1:1
-1:-1
0:2:1
-1:1
0:1:1
-1:-1
0:2:1
-1:1
0:3:1
-1:-1
0:4:1
-1:1
0:2:1
-1:1
0:1:1
-1:-1
1:1:1
-1:-1
0:2:1
-1:1
1:2:1
-1:1
2:4:1
0:-1
0:1:1
-1:-1
0:2:1
-1:1
0:2:1
-1:1
2:1:1
0:-1
0:1:1
-1:-1
0:1:1
-1:-1
0:2:1
-1:1
3:2:1
0:1
0:1:2
-1:-1
0:2:1
-1:1
3:2:1
0:1
1:1:2
-1:-1
0:1:1
-1:-1
0:1:1
-1:-1
0:1:1
-1:1
0:1:1
-1:-1
0:1:1
-1:-1
0:1:1
-1:-1
0:1:1
-1:-1
0:2:1
-1:1
0:1:1
-1:-1
2:12:1
0:1
0:2:2
-1:-1
0:1:1
-1:-1
1:2:1
-1:1
0:1:1
-1:-1
0:2:1
-1:-1
0:1:1
-1:-1
0:2:1
-1:1
0:2:1
-1:1
0:2:1
-1:1
1:1:1
-1:-1
0:1:1
-1:-1
0:1:1
-1:1
0:1:1
-1:-1
0:4:1
-1:-1
0:2:1
-1:1
0:2:1
-1:1
0:2:1
-1:1
1:3:1
-1:-1
0:2:1
-1:-1
0:1:1
-1:-1
0:2:1
-1:1
2:1:1
0:-1
0:3:1
-1:-1
0:2:1
-1:1
0:1:1
-1:-1
0:1:1
-1:-1
0:1:1
-1:-1
0:1:1
-1:-1
2:2:1
0:1
1:4:2
-1:-1
4:1:1
1:-1
2:3:1
0:-1
0:2:1
-1:-1
0:1:1
-1:-1
0:3:1
-1:1
3:1:1
0:-1
3:3:1
0:-1
0:2:1
-1:1
1:1:1
-1:-1
0:2:1
-1:-1
0:3:1
-1:-1
2:2:1
0:1
0:2:2
-1:0
0:1:1
-1:-1
2:2:1
0:1
0:2:2
-1:-1
0:1:1
-1:-1
0:2:1
-1:1
0:2:1
-1:1
0:2:1
-1:1
1:2:1
-1:1
0:2:1
-1:1
0:1:1
-1:-1
0:2:1
-1:1
0:4:1
-1:1
2:2:1
0:1
0:1:2
-1:-1
0:1:1
-1:-1
0:2:1
-1:1
2:2:1
0:1
0:1:2
-1:-1
0:2:1
-1:1
0:2:1
-1:1
2:1:1
0:-1
0:3:1
-1:-1
0:2:1
-1:1
0:2:1
-1:1
0:2:1
-1:1
0:1:1
-1:1
0:3:1
-1:-1
0:1:1
-1:-1
0:4:1
-1:1
0:2:1
-1:1
0:1:1
-1:-1
0:2:1
-1:1
0:1:1
-1:-1
0:1:1
-1:-1
0:2:1
-1:1
2:2:1
0:1
0:2:2
-1:-1
2:3:1
0:-1
3:3:1
0:-1
0:2:1
-1:1
2:4:1
0:1
2:2:2
0:-1
0:3:2
-1:-1
2:2:1
0:1
0:1:2
-1:-1
0:1:1
-1:-1
0:2:1
-1:1
0:3:1
-1:-1
0:4:1
-1:1
0:2:1
-1:1
0:1:1
-1:-1
0:2:1
-1:1
2:2:1
0:1
0:0:2
-1:-1
0:1:1
-1:-1
2:2:1
0:1
1:4:2
-1:-1
0:1:1
-1:-1
0:1:1
-1:-1
0:4:1
-1:1
0:1:1
-1:-1
0:3:1
-1:-1
4:8:1
1:-1
7:3:1
1:1
0:2:2
-1:0
4:4:1
1:1
8:4:2
2:1
14:6:4
2:1
0:4:6
-1:0
0:12:5
-1:-1
15:26:4
2:-1
12:30:4
2:0
3:27:5
0:0
5:33:5
1:0
5:30:6
1:0
6:36:7
1:0
4:37:8
1:-1
3:31:8
0:-1
0:44:8
-1:-1
2:16:7
0:-1
0:13:7
-1:0
8:8:6
2:0
15:9:7
2:1
15:9:9
2:1
15:9:11
2:0
15:8:12
2:0
15:9:12
2:0
8:9:12
2:-1
15:9:12
2:0
15:9:12
2:0
15:9:12
2:0
15:9:12
2:0
15:8:12
2:0
15:9:12
2:0
7:9:12
1:-1
6:17:12
1:0
13:22:12
2:-1
2:9:12
0:-1
0:14:12
-1:0
0:16:11
-1:-1
3:22:10
0:-1
5:21:10
1:-1
1:21:10
-1:0
0:24:9
-1:-1
0:20:8
-1:-1
0:12:7
-1:-1
0:3:6
-1:-1
0:3:5
-1:-1
1:7:4
-1:0
0:1:3
-1:-1
4:0:2
1:-1
12:2:2
2:1
3:4:4
0:1
13:5:5
2:1
15:7:7
2:1
4:6:9
1:0
15:10:10
2:1
15:12:12
2:1
2:10:12
0:0
2:11:12
0:1
15:12:12
2:1
3:7:12
0:0
15:12:12
2:1
4:9:12
1:0
15:12:12
2:1
3:1:12
0:-1
15:12:12
2:1
2:15:12
0:1
15:11:12
2:1
3:9:12
0:0
3:14:12
0:1
0:17:12
-1:0
0:9:11
-1:-1
3:5:10
0:-1
0:5:10
-1:-1
2:11:9
0:-1
0:10:9
-1:-1
0:15:8
-1:-1
3:8:7
0:-1
2:10:7
0:-1
3:7:7
0:-1
0:6:7
-1:-1
0:6:6
-1:-1
2:4:5
0:-1
1:5:5
-1:-1
0:6:4
-1:0
0:2:3
-1:0
0:1:2
-1:-1
0:6:1
-1:1
0:3:1
-1:-1
0:1:1
-1:-1
2:2:1
0:1
0:4:2
-1:-1
0:2:1
-1:1
0:2:1
-1:1
0:2:1
-1:1
4:2:1
1:1
5:2:2
1:0
0:4:3
-1:0
1:6:2
-1:0
0:2:1
-1:-1
1:4:1
-1:1
0:6:1
-1:-1
2:4:1
0:1
0:4:2
-1:0
0:3:1
-1:-1
1:1:1
-1:-1
0:3:1
-1:-1
4:4:1
1:1
0:4:2
-1:-1
1:3:1
-1:1
0:1:1
-1:-1
0:4:1
-1:1
0:3:1
-1:1
1:3:1
-1:1
0:1:1
-1:-1
0:1:1
-1:-1
0:6:1
-1:1
0:2:1
-1:1
1:5:1
-1:1
0:1:1
-1:-1
2:2:1
0:1
0:2:2
-1:0
1:1:1
-1:-1
0:4:1
-1:1
0:2:1
-1:1
0:3:1
-1:-1
0:2:1
-1:1
0:1:1
-1:-1
0:2:1
-1:1
0:2:1
-1:1
0:1:1
-1:-1
0:3:1
-1:1
0:6:1
-1:1
0:2:1
-1:1
0:1:1
-1:-1
0:4:1
-1:1
0:4:1
-1:1
0:4:1
-1:1
4:2:1
1:1
0:2:2
-1:0
0:4:1
-1:1
0:4:1
-1:1
0:2:1
-1:1
2:2:1
0:1
2:1:2
0:-1
0:2:2
-1:0
2:5:1
0:1
3:1:2
0:-1
0:1:2
-1:-1
2:2:1
0:1
0:2:2
-1:-1
2:2:1
0:1
0:4:2
-1:0
0:2:1
-1:1
0:2:1
-1:-1
0:2:1
-1:1
0:1:1
-1:-1
2:4:1
0:1
0:2:2
-1:-1
0:2:1
-1:1
0:4:1
-1:1
0:4:1
-1:1
0:2:1
-1:1
0:2:1
-1:1
0:2:1
-1:-1
0:2:1
-1:-1
0:2:1
-1:-1
0:1:1
-1:-1
0:4:1
-1:1
0:3:1
-1:1
2:2:1
0:1
0:3:2
-1:-1
0:2:1
-1:1
2:2:1
0:1
0:3:2
-1:-1
0:1:1
-1:-1
1:3:1
-1:1
0:2:1
-1:-1
2:3:1
0:1
0:2:2
-1:-1
1:4:1
-1:1
0:3:1
-1:-1
0:2:1
-1:1
2:3:1
0:1
0:4:2
-1:-1
0:1:1
-1:-1
1:2:1
-1:1
0:3:1
-1:1
0:2:1
-1:1
0:2:1
-1:-1
0:2:1
-1:1
1:1:1
-1:-1
0:1:1
-1:-1
0:4:1
-1:1
0:2:1
-1:1
1:1:1
-1:-1
1:2:1
-1:1
1:2:1
-1:-1
0:3:1
-1:-1
0:2:1
-1:1
2:3:1
0:1
0:1:2
-1:0
0:1:1
-1:-1
0:3:1
-1:1
0:2:1
-1:1
2:4:1
0:1
0:1:2
-1:-1
0:2:1
-1:1
2:2:1
0:1
2:2:2
0:-1
0:2:2
-1:0
0:2:1
-1:1
0:4:1
-1:1
0:2:1
-1:1
0:1:1
-1:-1
0:4:1
-1:1
0:2:1
-1:1
0:1:1
-1:-1
0:3:1
-1:1
3:2:1
0:1
2:4:2
0:-1
0:1:2
-1:-1
2:2:1
0:1
0:2:2
-1:0
0:4:1
-1:1
0:2:1
-1:1
0:4:1
-1:1
0:4:1
-1:1
0:2:1
-1:1
0:4:1
-1:1
0:4:1
-1:1
0:2:1
-1:1
0:2:1
-1:1
0:1:1
-1:-1
0:1:1
-1:-1
0:4:1
-1:1
2:4:1
0:1
0:2:2
-1:-1
0:2:1
-1:1
0:2:1
-1:1
0:1:1
-1:-1
2:1:1
0:-1
0:3:1
-1:1
0:2:1
-1:1
1:2:1
-1:1
0:2:1
-1:-1
2:3:1
0:-1
0:4:1
-1:-1
0:2:1
-1:1
0:2:1
-1:1
0:2:1
-1:1
2:2:1
0:1
0:3:2
-1:-1
0:2:1
-1:1
0:3:1
-1:1
0:2:1
-1:1
0:1:1
-1:-1
2:1:1
0:-1
0:2:1
-1:1
1:3:1
-1:-1
2:3:1
0:-1
1:3:1
-1:-1
0:1:1
-1:-1
0:1:1
-1:-1
2:4:1
0:1
2:3:2
0:-1
0:2:2
-1:-1
0:2:1
-1:1
0:3:1
-1:-1
1:4:1
-1:1
0:4:1
-1:-1
0:2:1
-1:1
0:4:1
-1:1
0:1:1
-1:-1
0:1:1
-1:-1
0:15:1
-1:1
0:2:1
-1:1
0:2:1
-1:1
0:2:1
-1:1
0:3:1
-1:1
0:2:1
-1:1
0:2:1
-1:1
0:0:1
-1:-1
0:3:1
-1:-1
0:2:1
-1:1
0:1:1
-1:-1
0:4:1
-1:1
0:4:1
-1:1
0:2:1
-1:1
0:0:1
-1:-1
0:2:1
-1:1
2:1:1
0:-1
0:3:1
-1:-1
0:2:1
-1:1
0:2:1
-1:1
0:1:1
-1:-1
0:2:1
-1:1
0:3:1
-1:-1
0:2:1
-1:-1
0:3:1
-1:-1
0:2:1
-1:1
2:1:1
0:-1
1:4:1
-1:-1
2:2:1
0:1
0:1:2
-1:-1
2:3:1
0:1
0:3:2
-1:-1
0:2:1
-1:1
0:2:1
-1:1
0:3:1
-1:-1
0:4:1
-1:1
2:1:1
0:-1
2:4:1
0:-1
1:2:1
-1:1
0:2:1
-1:-1
0:2:1
-1:1
0:4:1
-1:1
0:2:1
-1:-1
0:2:1
-1:1
2:2:1
0:1
0:3:2
-1:0
0:2:1
-1:1
0:3:1
-1:1
0:2:1
-1:1
0:2:1
-1:1
2:3:1
0:-1
0:2:1
-1:1
2:1:1
0:-1
0:3:1
-1:-1
0:2:1
-1:-1
0:1:1
-1:-1
0:3:1
-1:-1
2:4:1
0:1
0:1:2
-1:-1
1:4:1
-1:1
2:2:1
0:1
0:2:2
-1:-1
0:6:1
-1:1
0:2:1
-1:1
2:2:1
0:1
0:1:2
-1:-1
0:1:1
-1:-1
0:1:1
-1:-1
2:4:1
0:1
0:2:2
-1:-1
0:1:1
-1:1
2:2:1
0:1
1:1:2
-1:-1
0:3:1
-1:-1
1:2:1
-1:1
1:2:1
-1:-1
0:1:1
-1:-1
0:2:1
-1:1
0:1:1
-1:-1
0:4:1
-1:1
0:10:1
-1:1
0:3:1
-1:1
0:4:1
-1:1
0:1:1
-1:-1
0:1:1
-1:-1
0:2:1
-1:1
0:2:1
-1:1
2:2:1
0:1
0:1:2
-1:-1
0:4:1
-1:1
2:4:1
0:1
0:2:2
-1:-1
0:1:1
-1:-1
2:1:1
0:-1
0:3:1
-1:-1
2:3:1
0:-1
0:2:1
-1:1
0:1:1
-1:1
0:4:1
-1:1
0:3:1
-1:-1
0:1:1
-1:-1
0:2:1
-1:1
0:2:1
-1:-1
0:1:1
-1:-1
0:2:1
-1:1
0:4:1
-1:1
0:2:1
-1:1
0:1:1
-1:-1
2:2:1
0:1
0:2:2
-1:-1
2:1:1
0:-1
0:2:1
-1:1
0:2:1
-1:-1
0:3:1
-1:-1
2:1:1
0:-1
0:3:1
-1:-1
0:3:1
-1:-1
0:2:1
-1:1
0:1:1
-1:1
0:2:1
-1:-1
0:2:1
-1:1
0:1:1
-1:-1
0:3:1
-1:-1
1:2:1
-1:-1
0:0:1
-1:-1
0:1:1
-1:-1
0:2:1
-1:1
0:3:1
-1:-1
0:2:1
-1:1
0:3:1
-1:-1
0:4:1
-1:1
0:1:1
-1:-1
0:2:1
-1:1
0:1:1
-1:-1
2:1:1
0:-1
0:2:1
-1:-1
0:5:1
-1:1
0:4:1
-1:1
0:1:1
-1:-1
0:2:1
-1:1
0:2:1
-1:1
0:1:1
-1:-1
0:2:1
-1:1
0:1:1
-1:1
0:2:1
-1:1
0:2:1
-1:1
2:4:1
0:1
0:2:2
-1:-1
0:1:1
-1:-1
0:3:1
-1:-1
0:1:1
-1:-1
2:2:1
0:1
0:1:2
-1:-1
0:2:1
-1:1
0:1:1
-1:-1
2:2:1
0:1
0:2:2
-1:-1
0:2:1
-1:1
1:2:1
-1:-1
3:2:1
0:1
0:1:2
-1:-1
0:2:1
-1:1
0:2:1
-1:1
0:1:1
-1:-1
0:2:1
-1:1
0:2:1
-1:1
0:1:1
-1:-1
0:0:1
-1:-1
0:1:1
-1:-1
0:1:1
-1:1
0:2:1
-1:1
0:1:1
-1:-1
1:2:1
-1:1
0:1:1
-1:-1
0:2:1
-1:1
0:3:1
-1:-1
0:2:1
-1:1
1:3:1
-1:1
0:3:1
-1:-1
2:2:1
0:1
0:1:2
-1:-1
0:2:1
-1:1
0:2:1
-1:1
0:1:1
-1:-1
2:2:1
0:1
2:2:2
0:-1
0:2:2
-1:0
2:3:1
0:1
0:2:2
-1:0
0:1:1
-1:-1
1:4:1
-1:1
0:1:1
-1:-1
0:2:1
-1:1
0:2:1
-1:1
0:1:1
-1:1
0:3:1
-1:1
3:1:1
0:-1
0:4:1
-1:-1
2:2:1
0:1
0:1:2
-1:-1
0:2:1
-1:1
2:1:1
0:-1
0:1:1
-1:1
1:1:1
-1:-1
0:2:1
-1:-1
0:2:1
-1:1
2:2:1
0:1
0:2:2
-1:0
0:2:1
-1:1
0:2:1
-1:1
0:2:1
-1:1
0:1:1
-1:-1
0:1:1
-1:-1
1:2:1
-1:1
0:1:1
-1:-1
0:3:1
-1:-1
0:2:1
-1:1
0:2:1
-1:1
0:1:1
-1:1
0:2:1
-1:1
0:1:1
-1:-1
0:2:1
-1:1
0:1:1
-1:1
0:1:1
-1:1
0:3:1
-1:-1
1:2:1
-1:1
0:2:1
-1:1
0:2:1
-1:1
0:2:1
-1:1
0:2:1
-1:1
0:2:1
-1:1
0:2:1
-1:1
0:0:1
-1:-1
0:2:1
-1:1
0:4:1
-1:1
2:0:1
0:-1
0:3:1
-1:-1
0:1:1
-1:-1
0:1:1
-1:-1
0:2:1
-1:1
0:1:1
-1:-1
0:1:1
-1:1
0:1:1
-1:-1
0:4:1
-1:1
0:3:1
-1:-1
0:2:1
-1:1
0:2:1
-1:1
2:2:1
0:1
0:2:2
-1:-1
2:2:1
0:1
0:2:2
-1:0
0:2:1
-1:-1
0:2:1
-1:1
0:1:1
-1:-1
0:2:1
-1:1
0:2:1
-1:1
0:2:1
-1:1
0:3:1
-1:-1
0:2:1
-1:1
0:3:1
-1:1
0:0:1
-1:-1
2:1:1
0:-1
0:2:1
-1:1
0:2:1
-1:1
0:2:1
-1:1
0:1:1
-1:-1
0:4:1
-1:1
0:2:1
-1:1
0:2:1
-1:1
0:1:1
-1:-1
2:2:1
0:1
1:2:2
-1:-1
0:1:1
-1:-1
0:1:1
-1:1
0:0:1
-1:-1
0:1:1
-1:-1
0:2:1
-1:1
2:4:1
0:1
2:2:2
0:-1
0:2:2
-1:0
0:3:1
-1:1
0:2:1
-1:1
0:1:1
-1:-1
0:2:1
-1:1
0:1:1
-1:-1
0:1:1
-1:1
0:1:1
-1:-1
0:1:1
-1:-1
0:3:1
-1:-1
0:4:1
-1:-1
7:7:1
1:1
0:2:2
-1:0
4:4:1
1:1
7:3:2
1:1
11:4:3
2:1
0:4:5
-1:0
2:12:4
0:0
14:29:4
2:1
15:29:6
2:1
15:24:8
2:1
15:23:10
2:-1
11:21:10
2:1
0:32:12
-1:0
0:25:11
-1:-1
2:28:10
0:-1
0:25:10
-1:1
0:9:10
-1:-1
0:32:9
-1:-1
3:31:8
0:-1
6:26:8
1:1
1:35:9
-1:-1
0:31:8
-1:-1
6:33:7
1:-1
4:34:7
1:-1
3:41:7
0:-1
0:44:7
-1:-1
2:8:6
0:-1
0:26:6
-1:-1
4:13:5
1:-1
13:9:5
2:1
15:9:7
2:1
15:9:9
2:1
15:9:11
2:0
15:9:12
2:0
2:9:12
0:0
11:9:12
2:0
15:9:12
2:0
15:9:12
2:0
15:9:12
2:0
15:9:12
2:0
15:9:12
2:0
3:11:12
0:0
0:10:12
-1:-1
0:13:11
-1:-1
0:23:10
-1:-1
0:21:9
-1:-1
0:10:8
-1:-1
3:13:7
0:-1
0:18:7
-1:-1
3:25:6
0:-1
4:20:6
1:0
3:24:7
0:0
0:21:7
-1:-1
0:10:6
-1:0
0:4:5
-1:-1
1:7:4
-1:0
0:2:3
-1:-1
14:15:2
2:-1
15:20:2
2:1
7:22:4
1:1
15:16:5
2:0
5:21:6
1:1
12:21:7
2:1
8:21:9
2:1
0:21:11
-1:1
0:21:11
-1:-1
15:20:10
2:-1
11:23:10
2:1
4:17:12
1:0
0:20:12
-1:1
0:15:12
-1:-1
0:2:11
-1:-1
2:7:10
0:-1
0:8:10
-1:-1
0:6:9
-1:-1
0:17:8
-1:-1
10:8:7
2:-1
0:9:7
-1:-1
1:6:6
-1:-1
3:4:5
0:-1
0:3:5
-1:-1
0:7:4
-1:0
0:5:3
-1:0
0:4:2
-1:0
2:6:1
0:-1
2:4:1
0:-1
0:4:1
-1:1
0:6:1
-1:1
4:4:1
1:1
0:5:2
-1:-1
2:2:1
0:1
0:5:2
-1:-1
4:5:1
1:1
2:5:2
0:0
0:5:2
-1:-1
0:3:1
-1:-1
0:3:1
-1:1
0:2:1
-1:-1
0:4:1
-1:1
0:4:1
-1:1
0:1:1
-1:-1
0:4:1
-1:1
0:2:1
-1:-1
0:2:1
-1:1
1:1:1
-1:-1
0:4:1
-1:1
0:3:1
-1:1
1:1:1
-1:-1
0:4:1
-1:-1
4:6:1
1:1
0:2:2
-1:0
0:4:1
-1:1
0:2:1
-1:1
0:1:1
-1:-1
1:3:1
-1:1
0:3:1
-1:1
0:7:1
-1:1
2:4:1
0:1
0:4:2
-1:-1
0:4:1
-1:1
0:5:1
-1:1
0:1:1
-1:-1
2:1:1
0:-1
1:1:1
-1:-1
0:1:1
-1:-1
1:1:1
-1:-1
2:1:1
0:-1
1:2:1
-1:-1
3:1:1
0:-1
1:3:1
-1:-1
4:3:1
1:-1
0:4:1
-1:-1
0:2:1
-1:1
2:4:1
0:1
0:5:2
-1:0
0:1:1
-1:-1
1:3:1
-1:-1
2:3:1
0:-1
1:2:1
-1:-1
3:2:1
0:-1
0:4:1
-1:-1
0:1:1
-1:-1
0:1:1
-1:-1
0:2:1
-1:1
0:3:1
-1:1
0:4:1
-1:-1
0:2:1
-1:1
3:4:1
0:1
0:3:2
-1:-1
0:2:1
-1:1
2:2:1
0:1
0:4:2
-1:-1
1:1:1
-1:-1
0:1:1
-1:-1
0:1:1
-1:-1
0:3:1
-1:-1
1:2:1
-1:1
0:4:1
-1:-1
0:2:1
-1:1
4:3:1
1:1
2:1:2
0:-1
0:3:2
-1:-1
0:2:1
-1:1
1:1:1
-1:-1
1:4:1
-1:-1
0:2:1
-1:-1
0:4:1
-1:1
1:2:1
-1:1
2:1:1
0:-1
0:2:1
-1:1
0:4:1
-1:1
0:2:1
-1:1
0:1:1
-1:-1
2:3:1
0:-1
2:2:1
0:1
0:2:2
-1:-1
0:4:1
-1:1
0:2:1
-1:1
0:6:1
-1:1
0:3:1
-1:1
0:4:1
-1:1
0:1:1
-1:-1
0:2:1
-1:-1
0:4:1
-1:1
2:5:1
0:-1
0:3:1
-1:-1
1:1:1
-1:-1
0:1:1
-1:-1
2:1:1
0:-1
0:2:1
-1:1
3:3:1
0:1
2:4:2
0:-1
2:3:2
0:-1
0:6:2
-1:-1
0:2:1
-1:1
0:4:1
-1:1
0:4:1
-1:1
0:4:1
-1:1
0:3:1
-1:-1
0:2:1
-1:1
0:4:1
-1:1
2:2:1
0:1
1:2:2
-1:0
0:2:1
-1:1
0:2:1
-1:-1
2:1:1
0:-1
0:2:1
-1:-1
0:3:1
-1:-1
0:1:1
-1:-1
0:1:1
-1:-1
0:2:1
-1:1
0:4:1
-1:1
0:1:1
-1:-1
0:3:1
-1:1
1:2:1
-1:1
0:2:1
-1:1
0:1:1
-1:-1
0:4:1
-1:1
0:2:1
-1:1
0:1:1
-1:-1
0:1:1
-1:1
0:1:1
-1:-1
0:4:1
-1:1
0:1:1
-1:-1
0:1:1
-1:-1
0:4:1
-1:1
0:2:1
-1:1
0:5:1
-1:1
0:4:1
-1:1
0:2:1
-1:1
2:1:1
0:-1
0:4:1
-1:1
1:3:1
-1:1
2:4:1
0:1
0:2:2
-1:0
0:2:1
-1:1
2:2:1
0:1
0:3:2
-1:-1
0:5:1
-1:1
0:3:1
-1:-1
0:3:1
-1:-1
0:2:1
-1:1
0:3:1
-1:1
0:3:1
-1:-1
2:2:1
0:1
2:4:2
0:-1
0:2:2
-1:0
1:1:1
-1:-1
0:3:1
-1:-1
0:1:1
-1:-1
0:3:1
-1:1
1:2:1
-1:1
2:2:1
0:1
0:1:2
-1:-1
0:2:1
-1:1
0:2:1
-1:1
0:1:1
-1:-1
0:3:1
-1:1
0:1:1
-1:-1
2:1:1
0:-1
1:3:1
-1:-1
0:1:1
-1:-1
1:2:1
-1:1
2:2:1
0:1
0:1:2
-1:-1
0:4:1
-1:1
0:1:1
-1:-1
0:3:1
-1:-1
0:2:1
-1:-1
1:3:1
-1:1
0:4:1
-1:1
0:2:1
-1:1
0:3:1
-1:-1
0:2:1
-1:1
0:2:1
-1:1
0:1:1
-1:-1
2:2:1
0:1
2:4:2
0:-1
0:2:2
-1:0
0:2:1
-1:1
0:3:1
-1:1
0:1:1
-1:-1
0:14:1
-1:1
0:1:1
-1:-1
0:3:1
-1:-1
0:4:1
-1:1
0:3:1
-1:1
0:2:1
-1:-1
0:5:1
-1:1
0:2:1
-1:1
2:1:1
0:-1
0:4:1
-1:-1
0:3:1
-1:1
2:3:1
0:1
0:2:2
-1:-1
0:3:1
-1:-1
0:1:1
-1:-1
1:2:1
-1:1
3:2:1
0:-1
0:1:1
-1:-1
1:3:1
-1:1
2:1:1
0:-1
0:3:1
-1:1
0:1:1
-1:-1
0:3:1
-1:1
0:1:1
-1:-1
0:2:1
-1:1
0:2:1
-1:1
0:2:1
-1:-1
1:2:1
-1:1
0:3:1
-1:-1
0:3:1
-1:1
1:3:1
-1:1
3:2:1
0:-1
0:2:1
-1:-1
0:2:1
-1:1
0:1:1
-1:-1
0:1:1
-1:-1
0:1:1
-1:-1
0:1:1
-1:-1
0:2:1
-1:-1
0:1:1
-1:-1
1:1:1
-1:-1
0:1:1
-1:-1
0:2:1
-1:1
0:4:1
-1:1
0:2:1
-1:1
0:2:1
-1:1
0:2:1
-1:1
0:1:1
-1:-1
0:3:1
-1:1
0:2:1
-1:1
0:1:1
-1:-1
1:1:1
-1:-1
0:1:1
-1:-1
2:2:1
0:1
0:3:2
-1:-1
1:3:1
-1:1
2:2:1
0:1
1:2:2
-1:-1
0:2:1
-1:-1
0:1:1
-1:-1
0:4:1
-1:1
0:1:1
-1:-1
1:1:1
-1:-1
2:4:1
0:1
0:2:2
-1:0
0:2:1
-1:1
0:2:1
-1:1
0:2:1
-1:-1
2:1:1
0:-1
2:2:1
0:-1
1:1:1
-1:-1
3:4:1
0:-1
0:2:1
-1:1
0:3:1
-1:-1
0:2:1
-1:1
0:4:1
-1:1
0:2:1
-1:1
0:1:1
-1:-1
4:4:1
1:1
1:1:2
-1:-1
0:1:1
-1:-1
0:3:1
-1:1
0:1:1
-1:-1
0:1:1
-1:-1
0:3:1
-1:1
0:2:1
-1:1
0:2:1
-1:-1
2:2:1
0:1
0:5:2
-1:1
0:2:2
-1:0
0:2:1
-1:1
0:4:1
-1:1
0:2:1
-1:1
0:1:1
-1:-1
0:3:1
-1:-1
1:2:1
-1:1
2:1:1
0:-1
3:1:1
0:-1
0:2:1
-1:1
0:3:1
-1:1
0:2:1
-1:1
0:2:1
-1:1
0:2:1
-1:1
0:2:1
-1:1
0:2:1
-1:1
0:2:1
-1:1
0:2:1
-1:1
0:1:1
-1:-1
0:2:1
-1:1
2:4:1
0:1
0:4:2
-1:0
0:2:1
-1:1
2:3:1
0:-1
0:5:1
-1:1
0:2:1
-1:1
2:2:1
0:1
0:3:2
-1:-1
0:4:1
-1:1
0:1:1
-1:-1
0:2:1
-1:1
0:3:1
-1:1
0:2:1
-1:1
0:1:1
-1:1
2:3:1
0:-1
0:2:1
-1:1
0:2:1
-1:1
0:3:1
-1:1
2:2:1
0:1
1:4:2
-1:0
0:1:1
-1:-1
0:1:1
-1:-1
0:1:1
-1:-1
0:4:1
-1:1
0:1:1
-1:-1
0:2:1
-1:1
0:1:1
-1:-1
0:1:1
-1:-1
0:2:1
-1:1
0:1:1
-1:1
0:2:1
-1:1
0:4:1
-1:1
0:2:1
-1:1
0:1:1
-1:-1
0:1:1
-1:-1
0:2:1
-1:1
0:2:1
-1:1
0:4:1
-1:1
0:1:1
-1:-1
0:2:1
-1:1
0:0:1
-1:-1
0:2:1
-1:-1
0:1:1
-1:-1
0:1:1
-1:-1
0:2:1
-1:1
0:2:1
-1:-1
0:1:1
-1:-1
0:1:1
-1:-1
1:2:1
-1:1
0:3:1
-1:-1
0:1:1
-1:-1
0:1:1
-1:-1
0:2:1
-1:1
1:1:1
-1:-1
0:4:1
-1:-1
0:2:1
-1:1
2:3:1
0:-1
0:3:1
-1:-1
0:1:1
-1:-1
0:4:1
-1:1
0:2:1
-1:1
0:2:1
-1:1
0:2:1
-1:1
0:2:1
-1:1
0:2:1
-1:1
1:1:1
-1:-1
0:1:1
-1:-1
0:2:1
-1:1
0:0:1
-1:-1
0:1:1
-1:-1
0:1:1
-1:-1
0:1:1
-1:-1
0:1:1
-1:-1
2:1:1
0:-1
1:2:1
-1:1
0:1:1
-1:-1
0:19:1
-1:-1
0:2:1
-1:-1
0:2:1
-1:1
0:3:1
-1:-1
0:4:1
-1:1
0:4:1
-1:1
2:1:1
0:-1
0:2:1
-1:-1
0:1:1
-1:-1
2:5:1
0:1
0:2:2
-1:-1
2:2:1
0:1
0:2:2
-1:-1
0:2:1
-1:1
0:4:1
-1:1
0:1:1
-1:-1
0:1:1
-1:-1
0:2:1
-1:1
0:2:1
-1:1
0:2:1
-1:1
0:4:1
-1:1
0:1:1
-1:-1
0:1:1
-1:-1
2:1:1
0:-1
0:2:1
-1:-1
2:2:1
0:1
0:2:2
-1:-1
0:0:1
-1:-1
1:1:1
-1:-1
0:1:1
-1:1
0:1:1
-1:-1
0:2:1
-1:1
0:4:1
-1:1
0:4:1
-1:1
2:2:1
0:1
2:4:2
0:-1
0:1:2
-1:-1
0:1:1
-1:-1
4:2:1
1:1
0:2:2
-1:0
1:1:1
-1:-1
2:1:1
0:-1
0:2:1
-1:-1
0:0:1
-1:-1
2:1:1
0:-1
0:1:1
-1:-1
0:3:1
-1:1
0:1:1
-1:-1
3:1:1
0:-1
0:4:1
-1:1
0:1:1
-1:1
2:1:1
0:-1
0:0:1
-1:-1
1:1:1
-1:-1
0:2:1
-1:1
0:1:1
-1:-1
2:2:1
0:1
0:4:2
-1:-1
0:1:1
-1:-1
0:1:1
-1:-1
0:1:1
-1:-1
0:2:1
-1:1
1:1:1
-1:-1
0:2:1
-1:-1
0:1:1
-1:-1
0:4:1
-1:1
1:1:1
-1:-1
0:3:1
-1:1
0:3:1
-1:1
0:2:1
-1:-1
0:1:1
-1:-1
0:3:1
-1:1
0:1:1
-1:-1
2:4:1
0:-1
0:4:1
-1:1
0:2:1
-1:1
0:2:1
-1:1
0:2:1
-1:1
0:3:1
-1:1
0:2:1
-1:-1
2:4:1
0:1
0:2:2
-1:-1
0:2:1
-1:1
0:2:1
-1:1
0:2:1
-1:1
0:2:1
-1:-1
0:0:1
-1:-1
1:1:1
-1:-1
0:1:1
-1:-1
0:2:1
-1:1
0:1:1
-1:-1
0:3:1
-1:-1
2:6:1
0:-1
7:5:1
1:1
0:2:2
-1:0
4:4:1
1:1
7:3:2
1:1
11:4:3
2:1
14:3:5
2:0
0:5:6
-1:0
0:13:5
-1:-1
0:18:4
-1:-1
13:13:3
2:-1
15:34:3
2:1
5:22:5
1:1
2:30:6
0:-1
8:25:6
2:0
11:20:7
2:1
15:28:9
2:1
6:36:11
1:0
0:7:12
-1:-1
13:27:11
2:-1
4:24:11
1:0
12:25:12
2:1
3:34:12
0:0
6:35:12
1:0
1:32:12
-1:0
1:38:11
-1:-1
3:39:10
0:0
2:44:10
0:-1
0:15:10
-1:-1
1:25:9
-1:-1
2:11:8
0:-1
10:12:8
2:-1
15:9:8
2:1
15:9:10
2:1
15:9:12
2:0
15:9:12
2:0
15:9:12
2:0
8:9:12
2:-1
15:9:12
2:0
15:9:12
2:0
15:9:12
2:0
15:9:12
2:0
15:9:12
2:0
12:12:12
2:0
8:7:12
2:-1
6:16:12
1:0
0:25:12
-1:-1
0:22:11
-1:-1
0:16:10
-1:-1
3:18:9
0:-1
3:22:9
0:-1
0:21:9
-1:0
0:25:8
-1:-1
0:19:7
-1:-1
0:13:6
-1:-1
0:7:5
-1:-1
1:6:4
-1:-1
0:5:3
-1:-1
13:16:2
2:-1
15:15:2
2:1
0:20:4
-1:1
15:24:4
2:-1
10:19:4
2:1
15:24:6
2:1
14:26:8
2:1
15:19:10
2:1
8:20:12
2:-1
0:26:12
-1:1
10:21:12
2:-1
9:27:12
2:1
0:26:12
-1:-1
0:5:11
-1:-1
1:4:10
-1:-1
0:8:9
-1:-1
0:8:8
-1:-1
0:7:7
-1:-1
2:8:6
0:-1
2:10:6
0:0
0:14:6
-1:-1
3:9:5
0:-1
0:7:5
-1:-1
3:6:4
0:0
2:11:4
0:-1
2:5:4
0:0
0:1:4
-1:-1
0:6:3
-1:0
0:4:2
-1:0
0:2:1
-1:-1
0:1:1
-1:-1
0:4:1
-1:1
0:4:1
-1:1
0:6:1
-1:1
0:3:1
-1:1
0:1:1
-1:-1
0:6:1
-1:1
0:2:1
-1:-1
4:5:1
1:-1
0:4:1
-1:1
0:4:1
-1:1
0:1:1
-1:-1
0:2:1
-1:1
1:2:1
-1:1
0:4:1
-1:-1
0:3:1
-1:1
0:1:1
-1:-1
0:4:1
-1:1
0:3:1
-1:1
1:2:1
-1:1
1:1:1
-1:-1
0:3:1
-1:1
0:1:1
-1:-1
0:4:1
-1:1
1:2:1
-1:1
0:4:1
-1:1
0:4:1
-1:1
0:1:1
-1:-1
0:2:1
-1:1
1:3:1
-1:1
0:5:1
-1:-1
0:2:1
-1:1
1:5:1
-1:1
0:3:1
-1:-1
1:2:1
-1:1
0:3:1
-1:-1
1:2:1
-1:1
2:1:1
0:-1
2:1:1
0:-1
0:7:1
-1:1
0:2:1
-1:1
1:2:1
-1:1
0:1:1
-1:-1
0:1:1
-1:-1
1:3:1
-1:1
0:1:1
-1:-1
0:3:1
-1:1
0:3:1
-1:1
1:2:1
-1:1
3:2:1
0:-1
0:4:1
-1:-1
0:1:1
-1:-1
0:1:1
-1:-1
0:1:1
-1:-1
0:4:1
-1:1
0:2:1
-1:1
0:1:1
-1:-1
0:2:1
-1:1
0:2:1
-1:1
0:4:1
-1:1
0:3:1
-1:1
2:4:1
0:1
2:4:2
0:-1
0:1:2
-1:-1
0:3:1
-1:-1
2:2:1
0:1
0:1:2
-1:-1
0:4:1
-1:1
0:2:1
-1:1
0:5:1
-1:1
0:4:1
-1:1
0:1:1
-1:-1
0:4:1
-1:1
2:3:1
0:1
0:4:2
-1:0
0:2:1
-1:1
2:3:1
0:-1
0:5:1
-1:1
0:1:1
-1:-1
2:3:1
0:1
2:2:2
0:0
2:3:2
0:-1
2:3:2
0:-1
0:2:2
-1:-1
0:2:1
-1:1
2:2:1
0:1
0:2:2
-1:-1
2:8:1
0:1
0:3:2
-1:-1
0:2:1
-1:1
0:4:1
-1:1
0:2:1
-1:1
0:2:1
-1:-1
1:4:1
-1:1
2:4:1
0:-1
0:2:1
-1:1
0:2:1
-1:1
0:4:1
-1:1
0:4:1
-1:1
0:0:1
-1:-1
0:1:1
-1:-1
2:2:1
0:1
0:4:2
-1:0
2:2:1
0:1
1:3:2
-1:-1
0:6:1
-1:-1
0:2:1
-1:1
0:4:1
-1:1
0:2:1
-1:1
0:2:1
-1:1
0:1:1
-1:-1
0:2:1
-1:1
0:4:1
-1:1
0:2:1
-1:1
0:2:1
-1:1
0:3:1
-1:1
0:2:1
-1:1
0:1:1
-1:1
0:1:1
-1:-1
2:2:1
0:-1
0:4:1
-1:-1
0:3:1
-1:-1
0:5:1
-1:1
0:2:1
-1:1
0:4:1
-1:1
0:2:1
-1:1
2:2:1
0:1
0:2:2
-1:0
0:3:1
-1:1
0:4:1
-1:1
0:2:1
-1:1
0:4:1
-1:1
0:3:1
-1:1
2:4:1
0:1
0:4:2
-1:1
2:1:2
0:-1
0:2:2
-1:0
1:3:1
-1:1
0:1:1
-1:-1
0:1:1
-1:-1
0:3:1
-1:1
0:2:1
-1:1
0:2:1
-1:1
0:2:1
-1:1
0:2:1
-1:1
0:2:1
-1:1
0:7:1
-1:1
0:2:1
-1:-1
0:1:1
-1:-1
0:2:1
-1:1
1:2:1
-1:1
0:1:1
-1:-1
0:2:1
-1:1
2:2:1
0:1
2:1:2
0:-1
0:2:2
-1:0
0:2:1
-1:1
0:4:1
-1:1
0:1:1
-1:-1
2:4:1
0:1
1:4:2
-1:-1
0:2:1
-1:-1
0:2:1
-1:1
0:3:1
-1:-1
0:2:1
-1:-1
0:2:1
-1:1
0:2:1
-1:1
0:3:1
-1:-1
0:4:1
-1:1
2:3:1
0:1
1:1:2
-1:-1
0:3:1
-1:-1
1:2:1
-1:1
3:3:1
0:-1
2:1:1
0:-1
0:4:1
-1:-1
0:3:1
-1:1
0:3:1
-1:1
0:1:1
-1:-1
1:3:1
-1:-1
2:1:1
0:-1
2:2:1
0:-1
0:3:1
-1:-1
0:2:1
-1:1
0:1:1
-1:-1
0:1:1
-1:-1
0:4:1
-1:1
0:0:1
-1:-1
1:3:1
-1:-1
0:4:1
-1:-1
0:3:1
-1:-1
1:2:1
-1:-1
0:2:1
-1:-1
2:2:1
0:1
0:2:2
-1:0
2:2:1
0:1
0:2:2
-1:0
0:2:1
-1:1
2:2:1
0:1
2:2:2
0:0
0:2:2
-1:0
0:4:1
-1:1
0:2:1
-1:1
0:3:1
-1:-1
0:2:1
-1:1
0:2:1
-1:-1
2:1:1
0:-1
0:3:1
-1:-1
3:4:1
0:1
0:3:2
-1:-1
1:2:1
-1:1
0:2:1
-1:1
0:3:1
-1:-1
0:1:1
-1:-1
0:4:1
-1:1
1:2:1
-1:1
0:5:1
-1:-1
0:2:1
-1:1
1:9:1
-1:-1
0:4:1
-1:-1
0:2:1
-1:1
1:4:1
-1:1
0:0:1
-1:-1
0:1:1
-1:-1
0:3:1
-1:-1
0:1:1
-1:-1
0:2:1
-1:1
1:1:1
-1:-1
0:4:1
-1:-1
1:5:1
-1:1
2:1:1
0:-1
2:1:1
0:-1
4:4:1
1:-1
0:4:1
-1:-1
0:1:1
-1:-1
2:4:1
0:1
0:3:2
-1:0
1:4:1
-1:1
0:2:1
-1:1
0:2:1
-1:1
0:3:1
-1:1
0:4:1
-1:1
0:4:1
-1:1
0:1:1
-1:-1
0:4:1
-1:1
1:1:1
-1:-1
2:3:1
0:-1
0:2:1
-1:1
0:2:1
-1:1
0:2:1
-1:1
0:2:1
-1:1
4:3:1
1:-1
0:0:1
-1:-1
0:1:1
-1:-1
0:2:1
-1:-1
4:1:1
1:-1
0:4:1
-1:-1
1:2:1
-1:1
0:2:1
-1:1
1:2:1
-1:1
2:4:1
0:1
0:3:2
-1:-1
2:1:1
0:-1
0:2:1
-1:1
0:1:1
-1:-1
0:3:1
-1:1
0:5:1
-1:1
0:1:1
-1:-1
1:2:1
-1:1
0:1:1
-1:-1
0:1:1
-1:1
0:1:1
-1:-1
2:2:1
0:1
0:3:2
-1:0
0:3:1
-1:1
0:1:1
-1:-1
0:0:1
-1:-1
0:1:1
-1:-1
1:1:1
-1:-1
3:2:1
0:-1
0:1:1
-1:-1
2:3:1
0:-1
0:2:1
-1:1
0:1:1
-1:-1
0:2:1
-1:1
2:0:1
0:-1
0:1:1
-1:-1
0:1:1
-1:-1
0:1:1
-1:-1
0:1:1
-1:-1
0:1:1
-1:-1
2:1:1
0:-1
1:2:1
-1:-1
1:3:1
-1:1
0:1:1
-1:-1
0:4:1
-1:1
0:2:1
-1:1
0:2:1
-1:1
2:1:1
0:-1
0:3:1
-1:-1
0:2:1
-1:1
0:2:1
-1:-1
0:2:1
-1:1
0:2:1
-1:1
0:3:1
-1:-1
0:1:1
-1:-1
0:2:1
-1:1
0:4:1
-1:1
0:1:1
-1:-1
0:2:1
-1:-1
0:2:1
-1:1
0:4:1
-1:1
0:2:1
-1:1
0:2:1
-1:1
0:1:1
-1:1
0:1:1
-1:-1
0:4:1
-1:1
0:2:1
-1:1
2:2:1
0:1
0:2:2
-1:-1
0:2:1
-1:1
0:2:1
-1:1
0:2:1
-1:1
0:1:1
-1:-1
2:2:1
0:-1
0:2:1
-1:-1
2:4:1
0:1
0:2:2
-1:-1
2:1:1
0:-1
0:1:1
-1:-1
0:4:1
-1:1
0:1:1
-1:-1
0:2:1
-1:1
1:1:1
-1:-1
0:2:1
-1:-1
2:2:1
0:1
0:2:2
-1:0
2:1:1
0:-1
0:1:1
-1:-1
0:4:1
-1:1
1:1:1
-1:-1
0:2:1
-1:-1
0:3:1
-1:-1
0:2:1
-1:1
0:2:1
-1:-1
0:2:1
-1:1
0:1:1
-1:-1
0:2:1
-1:1
1:1:1
-1:-1
0:3:1
-1:-1
0:2:1
-1:1
2:4:1
0:1
0:4:2
-1:-1
0:1:1
-1:-1
2:4:1
0:1
0:2:2
-1:0
0:2:1
-1:1
0:1:1
-1:-1
0:1:1
-1:-1
0:2:1
-1:-1
0:2:1
-1:1
0:1:1
-1:-1
0:2:1
-1:1
0:2:1
-1:1
0:2:1
-1:1
0:2:1
-1:1
0:2:1
-1:1
0:2:1
-1:1
0:1:1
-1:-1
0:2:1
-1:1
0:1:1
-1:-1
0:3:1
-1:1
0:2:1
-1:1
0:3:1
-1:-1
0:4:1
-1:1
0:1:1
-1:-1
0:2:1
-1:1
0:1:1
-1:-1
0:3:1
-1:1
0:1:1
-1:-1
0:2:1
-1:1
0:1:1
-1:-1
0:2:1
-1:1
1:4:1
-1:1
0:1:1
-1:-1
2:4:1
0:1
0:2:2
-1:-1
2:2:1
0:-1
0:2:1
-1:-1
0:2:1
-1:1
0:4:1
-1:1
0:1:1
-1:-1
0:2:1
-1:1
0:2:1
-1:-1
0:2:1
-1:1
0:0:1
-1:-1
0:1:1
-1:-1
0:2:1
-1:1
0:2:1
-1:1
0:2:1
-1:1
0:2:1
-1:1
0:2:1
-1:1
0:1:1
-1:-1
0:1:1
-1:-1
2:2:1
0:1
0:2:2
-1:-1
0:1:1
-1:-1
0:1:1
-1:1
0:1:1
-1:-1
0:4:1
-1:1
0:1:1
-1:-1
0:1:1
-1:-1
0:2:1
-1:1
0:2:1
-1:1
0:3:1
-1:1
0:1:1
-1:-1
0:2:1
-1:1
0:1:1
-1:-1
0:2:1
-1:1
0:1:1
-1:-1
0:0:1
-1:-1
0:1:1
-1:-1
1:2:1
-1:1
0:1:1
-1:-1
0:4:1
-1:1
0:1:1
-1:-1
0:1:1
-1:-1
0:2:1
-1:1
0:1:1
-1:-1
0:3:1
-1:1
0:4:1
-1:1
0:1:1
-1:-1
0:3:1
-1:-1
2:2:1
0:1
0:1:2
-1:-1
0:1:1
-1:1
2:1:1
0:-1
0:1:1
-1:-1
0:2:1
-1:1
0:2:1
-1:-1
0:1:1
-1:-1
0:1:1
-1:-1
1:1:1
-1:-1
0:2:1
-1:1
1:2:1
-1:1
0:1:1
-1:-1
1:1:1
-1:-1
0:2:1
-1:1
0:1:1
-1:-1
0:0:1
-1:-1
0:2:1
-1:1
0:3:1
-1:-1
3:4:1
0:1
0:1:2
-1:-1
0:2:1
-1:1
0:4:1
-1:1
0:2:1
-1:1
0:1:1
-1:-1
0:1:1
-1:-1
0:4:1
-1:1
0:1:1
-1:-1
0:1:1
-1:-1
0:1:1
-1:1
0:1:1
-1:-1
0:1:1
-1:1
0:1:1
-1:-1
0:2:1
-1:1
1:2:1
-1:1
0:2:1
-1:-1
0:3:1
-1:-1
0:1:1
-1:1
0:4:1
-1:1
2:3:1
0:-1
0:3:1
-1:-1
0:1:1
-1:1
2:1:1
0:-1
0:2:1
-1:1
0:1:1
-1:-1
0:2:1
-1:1
0:1:1
-1:-1
0:2:1
-1:1
0:2:1
-1:1
0:2:1
-1:1
2:2:1
0:1
1:2:2
-1:-1
0:1:1
-1:-1
0:2:1
-1:1
0:2:1
-1:1
0:2:1
-1:1
2:1:1
0:-1
0:1:1
-1:-1
2:0:1
0:-1
0:1:1
-1:-1
0:1:1
-1:-1
0:3:1
-1:-1
4:8:1
1:-1
7:3:1
1:1
0:2:2
-1:0
4:4:1
1:1
8:4:2
2:1
12:4:4
2:1
0:3:6
-1:0
0:9:5
-1:-1
13:23:4
2:-1
4:26:4
1:1
15:21:5
2:1
15:25:7
2:-1
6:25:7
1:1
1:28:8
-1:1
15:35:8
2:0
13:28:9
2:0
0:35:10
-1:1
1:3:10
-1:-1
15:32:9
2:-1
9:27:9
2:-1
6:30:9
1:0
11:32:10
2:-1
9:31:10
2:-1
0:37:10
-1:-1
2:36:9
0:-1
1:33:9
-1:0
6:46:8
1:-1
0:12:8
-1:-1
2:26:7
0:-1
2:16:7
0:0
10:12:7
2:-1
15:9:7
2:1
15:9:9
2:1
15:9:11
2:0
15:9:12
2:0
15:9:12
2:0
8:9:12
2:-1
15:9:12
2:0
15:9:12
2:0
15:9:12
2:0
15:9:12
2:0
15:9:12
2:0
12:12:12
2:0
8:7:12
2:-1
6:16:12
1:0
13:22:12
2:-1
3:11:12
0:-1
0:15:12
-1:0
0:18:11
-1:-1
0:21:10
-1:-1
3:21:9
0:-1
0:22:9
-1:0
0:25:8
-1:-1
0:23:7
-1:-1
0:9:6
-1:0
0:5:5
-1:-1
1:9:4
-1:-1
0:4:3
-1:-1
13:14:2
2:-1
15:14:2
2:1
2:20:4
0:0
15:24:4
2:1
15:19:6
2:0
15:23:7
2:1
15:25:9
2:0
3:20:10
0:1
12:20:11
2:0
3:25:12
0:1
14:22:12
2:0
4:26:12
1:1
0:24:12
-1:-1
0:1:11
-1:-1
0:3:10
-1:-1
0:13:9
-1:-1
0:6:8
-1:-1
0:5:7
-1:-1
4:14:6
1:-1
2:10:6
0:-1
2:13:6
0:-1
0:6:6
-1:-1
0:3:5
-1:-1
2:7:4
0:0
0:3:4
-1:0
3:4:3
0:0
2:4:3
0:0
2:4:3
0:-1
0:2:3
-1:-1
0:5:2
-1:0
2:4:1
0:1
0:3:2
-1:-1
0:1:1
-1:-1
0:4:1
-1:1
0:4:1
-1:1
0:7:1
-1:1
2:6:1
0:1
0:1:2
-1:-1
0:3:1
-1:-1
2:4:1
0:1
0:5:2
-1:-1
1:2:1
-1:-1
0:4:1
-1:1
2:6:1
0:1
2:2:2
0:0
0:3:2
-1:-1
0:5:1
-1:-1
0:2:1
-1:1
2:4:1
0:1
0:2:2
-1:0
0:4:1
-1:-1
4:1:1
1:-1
0:2:1
-1:1
1:3:1
-1:-1
0:3:1
-1:-1
2:4:1
0:1
1:1:2
-1:-1
0:3:1
-1:-1
0:3:1
-1:-1
0:3:1
-1:-1
0:4:1
-1:1
0:0:1
-1:-1
0:1:1
-1:-1
0:3:1
-1:-1
0:4:1
-1:1
0:2:1
-1:1
0:2:1
-1:1
0:2:1
-1:1
1:4:1
-1:1
0:4:1
-1:-1
0:3:1
-1:1
2:3:1
0:1
0:2:2
-1:-1
0:2:1
-1:1
4:2:1
1:1
0:5:2
-1:-1
0:1:1
-1:1
0:1:1
-1:-1
0:4:1
-1:1
0:2:1
-1:1
2:4:1
0:1
2:2:2
0:-1
0:3:2
-1:-1
0:1:1
-1:-1
0:3:1
-1:1
1:4:1
-1:1
0:1:1
-1:-1
0:2:1
-1:1
0:3:1
-1:-1
0:3:1
-1:1
0:8:1
-1:1
0:2:1
-1:1
0:4:1
-1:1
0:2:1
-1:1
0:4:1
-1:1
0:2:1
-1:-1
1:4:1
-1:1
0:2:1
-1:-1
0:4:1
-1:1
0:1:1
-1:-1
0:4:1
-1:1
0:6:1
-1:1
0:3:1
-1:-1
3:1:1
0:-1
0:2:1
-1:-1
0:3:1
-1:-1
0:2:1
-1:1
2:2:1
0:1
0:3:2
-1:-1
0:4:1
-1:1
1:3:1
-1:1
0:3:1
-1:-1
0:1:1
-1:-1
0:2:1
-1:1
2:3:1
0:-1
0:6:1
-1:-1
2:2:1
0:-1
0:1:1
-1:-1
1:2:1
-1:-1
0:4:1
-1:1
0:3:1
-1:-1
0:4:1
-1:1
1:2:1
-1:1
0:1:1
-1:-1
1:2:1
-1:1
0:1:1
-1:-1
2:1:1
0:-1
1:3:1
-1:1
0:5:1
-1:-1
0:2:1
-1:-1
1:2:1
-1:1
2:2:1
0:1
1:2:2
-1:0
0:1:1
-1:-1
2:2:1
0:1
0:2:2
-1:-1
0:2:1
-1:1
0:2:1
-1:1
2:2:1
0:1
1:3:2
-1:-1
0:2:1
-1:-1
0:2:1
-1:1
0:2:1
-1:1
0:2:1
-1:1
0:1:1
-1:-1
2:2:1
0:1
0:1:2
-1:-1
2:3:1
0:1
0:1:2
-1:-1
0:2:1
-1:1
0:2:1
-1:1
0:4:1
-1:1
0:2:1
-1:1
2:3:1
0:1
2:4:2
0:-1
0:2:2
-1:0
2:4:1
0:1
0:1:2
-1:-1
0:2:1
-1:1
0:1:1
-1:-1
2:4:1
0:1
0:2:2
-1:-1
0:2:1
-1:1
3:1:1
0:-1
0:2:1
-1:-1
2:2:1
0:1
0:3:2
-1:-1
0:2:1
-1:1
0:2:1
-1:1
2:1:1
0:-1
2:2:1
0:-1
0:4:1
-1:1
0:3:1
-1:1
0:2:1
-1:1
0:2:1
-1:1
0:2:1
-1:-1
0:1:1
-1:-1
0:1:1
-1:-1
0:4:1
-1:1
0:2:1
-1:1
0:4:1
-1:1
0:3:1
-1:-1
0:2:1
-1:1
2:3:1
0:1
0:2:2
-1:-1
0:2:1
-1:-1
0:1:1
-1:-1
0:1:1
-1:-1
0:3:1
-1:1
0:2:1
-1:-1
0:3:1
-1:1
0:1:1
-1:-1
0:2:1
-1:1
0:1:1
-1:-1
0:2:1
-1:-1
0:0:1
-1:-1
0:3:1
-1:-1
2:1:1
0:-1
0:1:1
-1:-1
0:3:1
-1:-1
0:2:1
-1:1
0:2:1
-1:1
0:2:1
-1:1
0:1:1
-1:-1
1:1:1
-1:-1
2:1:1
0:-1
1:1:1
-1:-1
1:4:1
-1:1
0:1:1
-1:-1
0:1:1
-1:-1
2:4:1
0:-1
0:2:1
-1:-1
1:1:1
-1:-1
1:2:1
-1:1
0:3:1
-1:-1
0:2:1
-1:1
0:4:1
-1:1
2:2:1
0:1
4:4:2
1:-1
Heartbeat CPU 0 instructions: 10000002 cycles: 25268120 heartbeat IPC: 0.395756 cumulative IPC: 0.370219 (Simulation time: 0 hr 0 min 33 sec) 
0:1:2
-1:-1
0:2:1
-1:1
0:2:1
-1:1
0:1:1
-1:-1
0:1:1
-1:-1
0:3:1
-1:-1
0:2:1
-1:1
0:3:1
-1:1
0:2:1
-1:1
0:2:1
-1:1
0:4:1
-1:1
0:2:1
-1:1
0:3:1
-1:1
0:2:1
-1:1
0:3:1
-1:1
0:2:1
-1:1
0:2:1
-1:1
0:4:1
-1:1
0:1:1
-1:-1
0:1:1
-1:-1
2:2:1
0:1
0:3:2
-1:0
0:4:1
-1:1
1:1:1
-1:-1
1:3:1
-1:-1
0:2:1
-1:-1
0:1:1
-1:-1
1:5:1
-1:1
3:2:1
0:-1
0:2:1
-1:-1
0:2:1
-1:1
0:2:1
-1:1
0:4:1
-1:1
0:2:1
-1:1
2:2:1
0:1
0:1:2
-1:-1
0:1:1
-1:-1
2:4:1
0:1
1:3:2
-1:0
0:1:1
-1:-1
0:1:1
-1:-1
2:4:1
0:1
2:2:2
0:0
0:2:2
-1:0
0:3:1
-1:1
0:1:1
-1:-1
0:2:1
-1:1
0:2:1
-1:1
0:4:1
-1:1
0:3:1
-1:-1
0:0:1
-1:-1
1:1:1
-1:-1
0:4:1
-1:-1
0:2:1
-1:1
0:2:1
-1:1
3:2:1
0:1
0:3:2
-1:-1
0:2:1
-1:1
2:1:1
0:-1
0:1:1
-1:-1
0:3:1
-1:-1
0:6:1
-1:1
0:2:1
-1:1
0:1:1
-1:1
0:2:1
-1:1
0:2:1
-1:1
1:3:1
-1:-1
0:2:1
-1:1
0:2:1
-1:1
0:3:1
-1:1
0:1:1
-1:-1
1:2:1
-1:1
0:2:1
-1:1
2:4:1
0:1
0:2:2
-1:-1
0:4:1
-1:1
0:3:1
-1:-1
0:1:1
-1:-1
0:2:1
-1:1
0:1:1
-1:-1
0:1:1
-1:-1
2:3:1
0:1
0:2:2
-1:0
2:1:1
0:-1
0:2:1
-1:-1
0:1:1
-1:-1
0:2:1
-1:1
2:1:1
0:-1
0:4:1
-1:-1
0:1:1
-1:-1
0:2:1
-1:1
0:2:1
-1:1
0:1:1
-1:-1
2:2:1
0:1
0:2:2
-1:-1
0:2:1
-1:1
0:2:1
-1:1
2:4:1
0:1
0:3:2
-1:0
1:1:1
-1:-1
2:1:1
0:-1
0:1:1
-1:-1
0:2:1
-1:1
0:2:1
-1:1
1:2:1
-1:-1
0:3:1
-1:-1
1:2:1
-1:1
0:2:1
-1:-1
0:2:1
-1:1
0:2:1
-1:1
0:1:1
-1:-1
0:2:1
-1:1
0:2:1
-1:1
2:2:1
0:1
0:2:2
-1:0
0:1:1
-1:-1
0:2:1
-1:1
0:2:1
-1:1
0:3:1
-1:1
0:1:1
-1:-1
0:2:1
-1:1
2:2:1
0:1
0:2:2
-1:0
0:2:1
-1:-1
2:3:1
0:-1
0:2:1
-1:1
1:1:1
-1:-1
0:3:1
-1:-1
0:1:1
-1:-1
1:4:1
-1:1
0:2:1
-1:-1
2:2:1
0:1
0:2:2
-1:0
3:3:1
0:-1
2:2:1
0:-1
0:1:1
-1:-1
0:2:1
-1:1
0:0:1
-1:-1
0:3:1
-1:-1
0:2:1
-1:1
0:2:1
-1:1
0:2:1
-1:1
0:1:1
-1:-1
0:3:1
-1:-1
0:5:1
-1:1
0:2:1
-1:-1
0:2:1
-1:-1
1:2:1
-1:1
0:2:1
-1:-1
0:1:1
-1:-1
2:1:1
0:-1
0:3:1
-1:-1
0:2:1
-1:1
0:2:1
-1:1
0:3:1
-1:-1
0:4:1
-1:1
0:2:1
-1:1
0:1:1
-1:-1
0:1:1
-1:-1
0:1:1
-1:-1
0:2:1
-1:1
0:2:1
-1:1
0:2:1
-1:1
2:2:1
0:1
1:1:2
-1:-1
0:1:1
-1:-1
0:2:1
-1:1
0:2:1
-1:1
0:1:1
-1:-1
0:2:1
-1:-1
0:2:1
-1:1
0:2:1
-1:1
1:2:1
-1:1
2:2:1
0:1
1:2:2
-1:-1
0:1:1
-1:-1
0:2:1
-1:1
0:2:1
-1:1
0:2:1
-1:1
0:2:1
-1:1
0:2:1
-1:1
0:2:1
-1:1
0:4:1
-1:1
0:1:1
-1:1
0:2:1
-1:1
0:0:1
-1:-1
0:1:1
-1:-1
0:1:1
-1:-1
0:2:1
-1:1
2:1:1
0:-1
0:2:1
-1:1
0:2:1
-1:1
3:3:1
0:1
0:2:2
-1:-1
0:2:1
-1:-1
7:4:1
1:1
2:2:2
0:0
0:3:2
-1:-1
2:2:1
0:1
2:3:2
0:-1
0:2:2
-1:0
0:2:1
-1:1
0:2:1
-1:-1
0:2:1
-1:1
0:6:1
-1:1
0:2:1
-1:1
0:4:1
-1:1
0:1:1
-1:-1
0:1:1
-1:1
0:2:1
-1:1
0:2:1
-1:1
0:2:1
-1:1
0:1:1
-1:-1
0:4:1
-1:1
0:2:1
-1:1
0:1:1
-1:-1
0:4:1
-1:1
1:2:1
-1:1
0:2:1
-1:-1
0:2:1
-1:1
1:1:1
-1:-1
0:3:1
-1:1
3:1:1
0:-1
2:2:1
0:-1
0:2:1
-1:1
1:1:1
-1:-1
0:1:1
-1:-1
2:1:1
0:-1
0:0:1
-1:-1
0:1:1
-1:-1
0:3:1
-1:-1
0:4:1
-1:1
1:1:1
-1:-1
0:2:1
-1:1
0:1:1
-1:-1
0:2:1
-1:1
0:2:1
-1:1
0:2:1
-1:1
0:1:1
-1:-1
0:2:1
-1:1
0:1:1
-1:-1
0:2:1
-1:1
0:4:1
-1:1
2:1:1
0:-1
0:0:1
-1:-1
0:1:1
-1:-1
0:2:1
-1:1
0:1:1
-1:-1
0:4:1
-1:1
0:1:1
-1:-1
0:1:1
-1:-1
1:2:1
-1:1
0:1:1
-1:-1
0:1:1
-1:-1
0:0:1
-1:-1
0:1:1
-1:-1
0:2:1
-1:1
0:3:1
-1:1
0:2:1
-1:1
0:3:1
-1:-1
0:2:1
-1:1
2:1:1
0:-1
0:1:1
-1:-1
0:2:1
-1:1
0:2:1
-1:1
0:1:1
-1:-1
0:2:1
-1:1
0:1:1
-1:-1
0:2:1
-1:1
1:3:1
-1:1
0:2:1
-1:-1
0:2:1
-1:1
0:1:1
-1:-1
0:3:1
-1:-1
2:8:1
0:-1
9:5:1
2:1
0:2:3
-1:0
5:5:2
1:1
9:4:3
2:1
13:4:5
2:0
15:4:6
2:0
1:9:7
-1:-1
7:14:6
1:0
4:21:7
1:1
11:20:8
2:1
15:30:10
2:1
5:33:12
1:1
15:27:12
2:1
15:23:12
2:-1
8:29:12
2:1
6:28:12
1:1
1:12:12
-1:-1
12:27:11
2:-1
10:33:11
2:0
2:31:12
0:0
3:33:12
0:0
3:30:12
0:0
0:33:12
-1:0
1:29:11
-1:-1
0:37:10
-1:-1
6:45:9
1:-1
0:12:9
-1:-1
5:32:8
1:-1
1:14:8
-1:-1
10:9:7
2:1
15:9:9
2:1
15:9:11
2:0
15:9:12
2:0
15:9:12
2:0
15:9:12
2:0
8:9:12
2:-1
15:9:12
2:0
15:9:12
2:0
15:9:12
2:0
15:9:12
2:0
15:9:12
2:0
12:12:12
2:0
8:7:12
2:-1
6:16:12
1:0
0:24:12
-1:-1
0:22:11
-1:-1
5:7:10
1:-1
1:11:10
-1:-1
0:18:9
-1:-1
4:22:8
1:-1
1:21:8
-1:0
0:24:7
-1:-1
0:19:6
-1:-1
0:13:5
-1:-1
0:3:4
-1:0
1:7:3
-1:-1
0:4:2
-1:-1
13:14:1
2:-1
15:13:1
2:1
0:19:3
-1:1
15:22:3
2:-1
14:22:3
2:1
15:23:5
2:1
15:26:7
2:1
3:20:9
0:1
12:20:10
2:0
3:25:11
0:1
14:22:12
2:0
4:27:12
1:1
0:16:12
-1:-1
0:9:11
-1:0
0:5:10
-1:-1
0:11:9
-1:-1
2:14:8
0:-1
0:13:8
-1:-1
0:4:7
-1:-1
0:5:6
-1:-1
0:7:5
-1:-1
2:4:4
0:0
4:4:4
1:-1
0:6:4
-1:0
0:6:3
-1:0
2:5:2
0:1
1:3:3
-1:0
2:6:2
0:0
2:6:2
0:0
0:7:2
-1:0
0:4:1
-1:1
0:11:1
-1:-1
1:3:1
-1:-1
5:2:1
1:-1
0:1:1
-1:-1
0:3:1
-1:1
0:3:1
-1:1
0:5:1
-1:1
2:6:1
0:1
0:3:2
-1:0
0:4:1
-1:1
0:3:1
-1:1
0:1:1
-1:-1
0:2:1
-1:1
0:3:1
-1:-1
1:2:1
-1:1
2:2:1
0:1
0:3:2
-1:-1
0:2:1
-1:1
0:7:1
-1:-1
1:2:1
-1:1
0:5:1
-1:-1
1:2:1
-1:1
0:2:1
-1:-1
2:4:1
0:1
0:1:2
-1:-1
0:2:1
-1:1
0:2:1
-1:1
0:1:1
-1:-1
0:2:1
-1:1
0:4:1
-1:1
0:3:1
-1:1
0:2:1
-1:-1
0:2:1
-1:1
0:4:1
-1:1
0:3:1
-1:1
0:6:1
-1:1
2:4:1
0:1
0:1:2
-1:-1
0:2:1
-1:1
0:2:1
-1:1
0:2:1
-1:1
2:4:1
0:1
2:4:2
0:-1
2:2:2
0:-1
0:4:2
-1:-1
0:3:1
-1:-1
0:3:1
-1:1
0:2:1
-1:1
1:4:1
-1:1
2:1:1
0:-1
3:1:1
0:-1
2:2:1
0:-1
0:2:1
-1:-1
2:5:1
0:-1
0:1:1
-1:-1
0:4:1
-1:-1
1:2:1
-1:1
0:2:1
-1:-1
2:2:1
0:1
2:5:2
0:-1
0:4:2
-1:0
0:2:1
-1:1
0:4:1
-1:1
0:2:1
-1:1
0:4:1
-1:1
0:2:1
-1:1
0:1:1
-1:-1
0:1:1
-1:-1
0:2:1
-1:1
0:1:1
-1:-1
1:1:1
-1:-1
0:2:1
-1:-1
1:2:1
-1:1
0:2:1
-1:1
1:2:1
-1:1
0:2:1
-1:1
3:1:1
0:-1
0:4:1
-1:-1
0:1:1
-1:-1
0:4:1
-1:1
0:2:1
-1:1
0:2:1
-1:1
2:3:1
0:-1
0:2:1
-1:1
0:4:1
-1:1
0:2:1
-1:1
0:1:1
-1:-1
0:4:1
-1:1
1:5:1
-1:1
0:2:1
-1:1
0:4:1
-1:1
2:2:1
0:1
0:4:2
-1:-1
0:2:1
-1:1
2:4:1
0:1
2:2:2
0:-1
0:4:2
-1:-1
0:1:1
-1:-1
0:3:1
-1:-1
0:1:1
-1:-1
0:2:1
-1:1
1:2:1
-1:1
0:3:1
-1:-1
2:2:1
0:1
0:3:2
-1:-1
2:1:1
0:-1
0:2:1
-1:-1
1:2:1
-1:1
0:4:1
-1:-1
2:1:1
0:-1
2:4:1
0:-1
0:2:1
-1:-1
2:4:1
0:1
0:4:2
-1:0
2:4:1
0:1
2:1:2
0:-1
0:6:2
-1:0
0:3:1
-1:1
2:4:1
0:1
0:3:2
-1:-1
0:3:1
-1:-1
0:2:1
-1:1
0:4:1
-1:1
1:2:1
-1:1
0:2:1
-1:-1
0:2:1
-1:-1
2:6:1
0:1
2:3:2
0:-1
0:3:2
-1:-1
0:2:1
-1:-1
2:2:1
0:1
0:2:2
-1:-1
0:3:1
-1:1
2:2:1
0:1
2:2:2
0:-1
0:2:2
-1:0
0:1:1
-1:-1
0:1:1
-1:-1
0:2:1
-1:1
0:4:1
-1:1
0:4:1
-1:1
0:3:1
-1:1
0:10:1
-1:1
0:2:1
-1:1
0:5:1
-1:1
2:2:1
0:1
0:1:2
-1:-1
0:2:1
-1:1
2:2:1
0:1
0:1:2
-1:-1
0:3:1
-1:-1
0:3:1
-1:-1
0:2:1
-1:1
0:2:1
-1:-1
0:2:1
-1:1
0:1:1
-1:-1
0:1:1
-1:-1
2:1:1
0:-1
0:1:1
-1:-1
1:5:1
-1:-1
2:3:1
0:-1
0:2:1
-1:1
0:2:1
-1:1
0:4:1
-1:1
2:1:1
0:-1
3:1:1
0:-1
0:1:1
-1:-1
1:2:1
-1:1
0:3:1
-1:-1
0:4:1
-1:1
0:1:1
-1:-1
0:3:1
-1:1
0:2:1
-1:-1
2:1:1
0:-1
0:1:1
-1:-1
1:1:1
-1:-1
2:4:1
0:-1
0:2:1
-1:1
1:1:1
-1:-1
2:3:1
0:-1
0:1:1
-1:-1
0:2:1
-1:1
1:1:1
-1:-1
2:1:1
0:-1
0:3:1
-1:-1
0:2:1
-1:1
0:4:1
-1:1
0:2:1
-1:1
0:5:1
-1:1
0:1:1
-1:-1
0:2:1
-1:1
0:2:1
-1:-1
0:2:1
-1:1
0:3:1
-1:-1
1:1:1
-1:-1
0:6:1
-1:-1
0:3:1
-1:1
0:3:1
-1:-1
0:4:1
-1:-1
0:2:1
-1:1
0:2:1
-1:1
0:2:1
-1:1
0:2:1
-1:1
0:3:1
-1:-1
1:2:1
-1:1
2:2:1
0:1
0:2:2
-1:-1
0:2:1
-1:1
0:1:1
-1:-1
0:4:1
-1:1
0:2:1
-1:-1
0:0:1
-1:-1
0:1:1
-1:-1
0:2:1
-1:1
2:2:1
0:1
0:4:2
-1:-1
0:4:1
-1:1
0:2:1
-1:1
0:4:1
-1:1
0:2:1
-1:1
0:1:1
-1:-1
0:2:1
-1:-1
0:2:1
-1:1
1:1:1
-1:-1
0:3:1
-1:-1
2:2:1
0:1
0:2:2
-1:-1
0:1:1
-1:-1
0:2:1
-1:1
0:4:1
-1:1
1:2:1
-1:-1
0:3:1
-1:-1
2:5:1
0:1
0:2:2
-1:0
0:3:1
-1:1
0:1:1
-1:-1
3:2:1
0:1
0:2:2
-1:-1
0:1:1
-1:-1
0:2:1
-1:1
0:2:1
-1:1
0:4:1
-1:1
0:4:1
-1:1
0:1:1
-1:-1
2:2:1
0:1
0:4:2
-1:0
2:1:1
0:-1
0:4:1
-1:1
0:1:1
-1:-1
0:2:1
-1:1
1:2:1
-1:1
0:1:1
-1:-1
0:2:1
-1:1
0:4:1
-1:1
2:3:1
0:-1
0:2:1
-1:-1
0:1:1
-1:-1
0:2:1
-1:1
0:3:1
-1:-1
0:1:1
-1:-1
2:2:1
0:1
1:3:2
-1:0
0:3:1
-1:-1
0:4:1
-1:1
0:2:1
-1:1
4:5:1
1:-1
0:1:1
-1:-1
0:1:1
-1:-1
0:1:1
-1:-1
0:1:1
-1:-1
0:4:1
-1:1
0:1:1
-1:-1
0:4:1
-1:1
0:1:1
-1:-1
0:1:1
-1:-1
0:1:1
-1:-1
0:1:1
-1:1
0:3:1
-1:-1
2:2:1
0:1
0:1:2
-1:-1
0:4:1
-1:1
0:3:1
-1:-1
0:1:1
-1:-1
0:2:1
-1:-1
0:4:1
-1:1
0:2:1
-1:1
0:2:1
-1:1
1:2:1
-1:-1
2:4:1
0:-1
0:1:1
-1:-1
0:2:1
-1:1
0:2:1
-1:1
2:2:1
0:1
0:2:2
-1:-1
2:2:1
0:-1
0:1:1
-1:-1
0:1:1
-1:-1
2:4:1
0:1
0:2:2
-1:-1
0:2:1
-1:1
2:2:1
0:1
0:1:2
-1:-1
2:2:1
0:1
0:3:2
-1:-1
0:1:1
-1:1
0:1:1
-1:-1
0:1:1
-1:-1
0:1:1
-1:-1
2:1:1
0:-1
0:2:1
-1:1
0:2:1
-1:1
0:0:1
-1:-1
1:2:1
-1:-1
1:1:1
-1:-1
0:4:1
-1:1
0:2:1
-1:1
0:1:1
-1:-1
1:1:1
-1:-1
1:1:1
-1:-1
0:2:1
-1:1
1:1:1
-1:-1
0:1:1
-1:-1
0:1:1
-1:-1
2:2:1
0:1
0:2:2
-1:-1
0:1:1
-1:-1
0:2:1
-1:1
2:2:1
0:1
0:1:2
-1:-1
0:2:1
-1:1
0:2:1
-1:1
0:4:1
-1:1
0:4:1
-1:1
0:1:1
-1:-1
0:2:1
-1:1
0:0:1
-1:-1
0:2:1
-1:1
0:1:1
-1:-1
0:2:1
-1:1
0:1:1
-1:-1
0:2:1
-1:1
0:1:1
-1:-1
0:1:1
-1:-1
0:1:1
-1:-1
0:3:1
-1:-1
0:4:1
-1:1
0:2:1
-1:1
0:1:1
-1:-1
0:2:1
-1:1
1:2:1
-1:1
0:1:1
-1:-1
0:3:1
-1:-1
0:2:1
-1:1
0:4:1
-1:1
0:2:1
-1:1
1:2:1
-1:-1
0:1:1
-1:-1
0:2:1
-1:1
0:1:1
-1:1
0:1:1
-1:-1
0:3:1
-1:-1
0:1:1
-1:-1
0:2:1
-1:1
0:2:1
-1:1
0:1:1
-1:-1
0:2:1
-1:1
2:2:1
0:1
0:1:2
-1:-1
0:3:1
-1:1
0:4:1
-1:1
2:1:1
0:-1
3:3:1
0:-1
3:1:1
0:-1
0:1:1
-1:-1
1:1:1
-1:-1
0:1:1
-1:-1
2:2:1
0:1
0:1:2
-1:-1
0:2:1
-1:1
0:1:1
-1:-1
0:2:1
-1:1
2:3:1
0:1
Finished CPU 0 instructions: 10000001 cycles: 27002105 cumulative IPC: 0.370342 (Simulation time: 0 hr 0 min 36 sec) 

CPU 0 Branch Prediction Accuracy: 84.4719% MPKI: 16.2316 Average ROB Occupancy at Mispredict: 58.8004

ChampSim completed all CPUs

Region of Interest Statistics

CPU 0 cumulative IPC: 0.370342 instructions: 10000001 cycles: 27002105
L1D TOTAL     ACCESS:    4982276  HIT:    4951361  MISS:      30915
L1D LOAD      ACCESS:    2126245  HIT:    2108501  MISS:      17744
L1D RFO       ACCESS:    1157635  HIT:    1155980  MISS:       1655
L1D PREFETCH  ACCESS:    1698396  HIT:    1686880  MISS:      11516
L1D WRITEBACK ACCESS:          0  HIT:          0  MISS:          0
L1D PREFETCH  REQUESTED:    1921065  ISSUED:    1890605  USEFUL:       4069  USELESS:       8756
L1D AVERAGE MISS LATENCY: 17089.4 cycles
L1I TOTAL     ACCESS:    1927495  HIT:    1926974  MISS:        521
L1I LOAD      ACCESS:    1927495  HIT:    1926974  MISS:        521
L1I RFO       ACCESS:          0  HIT:          0  MISS:          0
L1I PREFETCH  ACCESS:          0  HIT:          0  MISS:          0
L1I WRITEBACK ACCESS:          0  HIT:          0  MISS:          0
L1I PREFETCH  REQUESTED:          0  ISSUED:          0  USEFUL:          0  USELESS:          0
L1I AVERAGE MISS LATENCY: 12.2303 cycles
L2C TOTAL     ACCESS:      63660  HIT:      60667  MISS:       2993
L2C LOAD      ACCESS:      18243  HIT:      17532  MISS:        711
L2C RFO       ACCESS:       1643  HIT:       1643  MISS:          0
L2C PREFETCH  ACCESS:      40076  HIT:      37794  MISS:       2282
L2C WRITEBACK ACCESS:       3698  HIT:       3698  MISS:          0
L2C PREFETCH  REQUESTED:      41167  ISSUED:      40992  USEFUL:       1011  USELESS:        171
L2C AVERAGE MISS LATENCY: 179.836 cycles
LLC TOTAL     ACCESS:       3003  HIT:         99  MISS:       2904
LLC LOAD      ACCESS:        710  HIT:         29  MISS:        681
LLC RFO       ACCESS:          0  HIT:          0  MISS:          0
LLC PREFETCH  ACCESS:       2283  HIT:         60  MISS:       2223
LLC WRITEBACK ACCESS:         10  HIT:         10  MISS:          0
LLC PREFETCH  REQUESTED:          0  ISSUED:          0  USEFUL:         10  USELESS:          0
LLC AVERAGE MISS LATENCY: 154.469 cycles
Major fault: 0 Minor fault: 342
CPU 0 L2C next line prefetcher final stats

DRAM Statistics
 CHANNEL 0
 RQ ROW_BUFFER_HIT:        717  ROW_BUFFER_MISS:       2187
 DBUS_CONGESTED:       1494
 WQ ROW_BUFFER_HIT:          0  ROW_BUFFER_MISS:          0  FULL:          0

 AVG_CONGESTED_CYCLE: 4
