
*** ChampSim Multicore Out-of-Order Simulator ***

Warmup Instructions: 1000000
Simulation Instructions: 10000000
Number of CPUs: 1
LLC sets: 2048
LLC ways: 16
Off-chip DRAM Size: 4096 MB Channels: 1 Width: 64-bit Data Rate: 3200 MT/s

CPU 0 runs /home/light/7th-Sem/cs622/project/ChampSim/dpc3_traces/644.nab_s-5853B.champsimtrace.xz
2:13:4
0:-1
0:12:4
-1:-1
4:10:3
1:-1
0:9:3
-1:-1
2:12:2
0:-1
0:10:2
-1:0
0:8:1
-1:-1
1:18:1
-1:-1
2:10:1
0:1
1:12:2
-1:1
0:9:2
-1:1
0:9:2
-1:-1
2:12:1
0:-1
3:9:1
0:1
0:11:2
-1:-1
2:9:1
0:-1
3:7:1
0:1
0:12:2
-1:1
1:7:2
-1:-1
0:7:1
-1:-1
3:14:1
0:-1
3:12:1
0:1
1:20:2
-1:0
0:7:1
-1:-1
4:10:1
1:-1
1:11:1
-1:1
0:10:1
-1:-1
3:8:1
0:-1
2:11:1
0:-1
0:9:1
-1:1
0:12:1
-1:-1
0:16:1
-1:-1
0:11:1
-1:1
3:11:1
0:-1
1:8:1
-1:1
1:7:1
-1:-1
4:9:1
1:-1
3:15:1
0:1
0:7:2
-1:0
0:11:1
-1:-1
3:10:1
0:-1
3:9:1
0:1
2:25:2
0:0
3:18:2
0:0
3:10:2
0:1
1:9:3
-1:0
1:7:2
-1:-1
4:7:1
1:-1
4:12:1
1:1
1:10:2
-1:1
4:6:2
1:-1
0:7:2
-1:1
4:8:2
1:-1
0:7:2
-1:1
1:9:2
-1:-1
1:8:1
-1:1
1:12:1
-1:-1
4:8:1
1:-1
4:8:1
1:1
1:11:2
-1:1
1:5:2
-1:-1
0:7:1
-1:-1
4:10:1
1:-1
4:8:1
1:1
1:10:2
-1:1
1:5:2
-1:-1
0:7:1
-1:-1
4:11:1
1:-1
1:7:1
-1:1
1:7:1
-1:-1
4:7:1
1:-1
4:8:1
1:1
1:9:2
-1:1
1:6:2
-1:-1
0:8:1
-1:-1
3:11:1
0:-1
1:7:1
-1:1
1:7:1
-1:-1
3:8:1
0:-1
4:7:1
1:1
1:12:2
-1:1
1:5:2
-1:-1
0:8:1
-1:-1
4:10:1
1:-1
1:7:1
-1:1
4:7:1
1:-1
4:9:1
1:1
4:8:2
1:1
4:12:3
1:1
3:10:4
0:0
0:8:4
-1:0
2:14:3
0:-1
1:10:3
-1:0
1:5:2
-1:-1
0:7:1
-1:-1
3:14:1
0:-1
2:12:1
0:1
1:11:2
-1:0
0:8:1
-1:1
0:10:1
-1:-1
3:9:1
0:-1
0:6:1
-1:-1
0:11:1
-1:1
1:5:1
-1:-1
0:7:1
-1:-1
3:12:1
0:-1
1:6:1
-1:1
0:7:1
-1:-1
3:9:1
0:-1
4:8:1
1:1
1:16:2
-1:1
1:8:2
-1:-1
0:9:1
-1:1
4:8:1
1:-1
4:10:1
1:1
0:25:2
-1:0
1:5:1
-1:-1
4:7:1
1:-1
3:10:1
0:1
3:11:2
0:1
0:11:3
-1:0
1:5:2
-1:-1
0:12:1
-1:-1
4:9:1
1:-1
0:9:1
-1:1
3:10:1
0:-1
0:15:1
-1:1
1:7:1
-1:-1
4:7:1
1:-1
0:7:1
-1:1
5:8:1
1:-1
0:8:1
-1:1
1:10:1
-1:-1
3:8:1
0:-1
4:9:1
1:1
1:10:2
-1:1
0:5:2
-1:-1
0:8:1
-1:-1
4:10:1
1:-1
1:9:1
-1:1
1:7:1
-1:-1
4:7:1
1:-1
4:9:1
1:1
1:9:2
-1:-1
0:8:1
-1:-1
0:9:1
-1:-1
4:11:1
1:-1
1:9:1
-1:1
1:9:1
-1:-1
3:8:1
0:-1
4:9:1
1:1
3:8:2
0:1
4:5:3
1:0
0:12:4
-1:0
3:10:3
0:-1
1:8:3
-1:0
1:7:2
-1:-1
1:10:1
-1:1
4:18:1
1:1
1:20:2
-1:0
1:8:1
-1:-1
5:8:1
1:-1
4:7:1
1:1
3:16:2
0:0
0:10:2
-1:0
5:11:1
1:-1
4:7:1
1:1
1:14:2
-1:1
4:17:2
1:-1
4:9:2
1:1
1:6:3
-1:0
0:10:2
-1:-1
2:20:1
0:-1
0:10:1
-1:1
4:12:1
1:1
3:14:2
0:1
0:13:3
-1:0
1:6:2
-1:-1
0:7:1
-1:-1
0:11:1
-1:-1
3:6:1
0:-1
3:8:1
0:1
0:10:2
-1:1
4:9:2
1:0
2:13:3
0:0
1:8:3
-1:0
2:14:2
0:0
0:11:2
-1:1
4:12:2
1:-1
3:21:2
0:0
1:14:2
-1:-1
0:21:1
-1:1
2:11:1
0:-1
0:8:1
-1:-1
3:12:1
0:-1
1:7:1
-1:1
4:9:1
1:1
1:10:2
-1:1
4:9:2
1:-1
0:8:2
-1:1
3:11:2
0:1
1:9:3
-1:0
0:6:2
-1:-1
0:8:1
-1:-1
4:10:1
1:-1
3:10:1
0:1
5:7:2
1:1
0:8:3
-1:0
0:9:2
-1:-1
3:10:1
0:-1
4:6:1
1:1
0:9:2
-1:1
4:8:2
1:-1
4:9:2
1:1
1:10:3
-1:0
1:7:2
-1:-1
0:7:1
-1:-1
4:10:1
1:-1
1:8:1
-1:1
1:7:1
-1:-1
4:7:1
1:-1
4:9:1
1:1
1:10:2
-1:1
1:6:2
-1:-1
0:7:1
-1:-1
4:10:1
1:-1
1:8:1
-1:1
1:6:1
-1:-1
3:11:1
0:-1
3:13:1
0:1
1:13:2
-1:1
1:6:2
-1:-1
4:8:1
1:-1
2:10:1
0:1
1:9:2
-1:1
1:7:2
-1:-1
4:8:1
1:-1
4:9:1
1:1
1:9:2
-1:1
1:6:2
-1:-1
0:7:1
-1:-1
4:10:1
1:-1
2:14:1
0:1
3:6:2
0:-1
1:20:2
-1:0
2:14:1
0:-1
1:10:1
-1:1
1:6:1
-1:-1
0:7:1
-1:-1
3:12:1
0:-1
1:14:1
-1:1
1:29:1
-1:-1
1:7:1
-1:1
4:9:1
1:-1
1:8:1
-1:1
0:7:1
-1:-1
0:11:1
-1:-1
3:6:1
0:-1
3:9:1
0:1
0:9:2
-1:1
0:7:2
-1:-1
2:9:1
0:-1
1:9:1
-1:1
4:8:1
1:-1
4:12:1
1:1
0:9:2
-1:1
3:16:2
0:-1
2:20:2
0:0
3:10:2
0:1
2:7:3
0:0
3:13:3
0:0
3:21:3
0:1
0:18:4
-1:0
3:9:3
0:1
1:11:4
-1:0
1:8:3
-1:-1
0:8:2
-1:-1
3:12:1
0:-1
0:10:1
-1:1
3:15:1
0:1
1:7:2
-1:1
3:8:2
0:-1
3:12:2
0:1
3:11:3
0:0
1:10:3
-1:0
1:6:2
-1:-1
0:9:1
-1:-1
3:10:1
0:-1
1:7:1
-1:1
0:7:1
-1:-1
4:7:1
1:-1
4:8:1
1:1
3:9:2
0:1
4:5:3
1:0
0:8:4
-1:0
3:11:3
0:-1
1:7:3
-1:0
0:6:2
-1:-1
4:9:1
1:-1
4:9:1
1:1
1:10:2
-1:-1
1:5:1
-1:-1
0:7:1
-1:-1
4:11:1
1:-1
1:6:1
-1:1
0:7:1
-1:-1
3:9:1
0:-1
4:8:1
1:1
1:10:2
-1:1
1:5:2
-1:-1
0:7:1
-1:-1
4:11:1
1:-1
1:7:1
-1:1
0:7:1
-1:-1
4:8:1
1:-1
4:7:1
1:1
1:14:2
-1:0
4:17:1
1:1
1:7:2
-1:1
1:8:2
-1:-1
4:7:1
1:-1
4:8:1
1:1
2:15:2
0:1
3:19:3
0:1
0:10:4
-1:0
4:11:3
1:-1
4:8:3
1:-1
4:13:3
1:1
3:23:4
0:-1
1:13:4
-1:0
0:6:3
-1:-1
3:9:2
0:1
0:14:3
-1:0
1:10:2
-1:-1
0:9:1
-1:-1
0:11:1
-1:-1
2:14:1
0:-1
3:10:1
0:-1
1:7:1
-1:1
0:7:1
-1:-1
4:11:1
1:-1
1:7:1
-1:1
0:11:1
-1:-1
1:6:1
-1:-1
3:12:1
0:-1
3:10:1
0:1
4:9:2
1:1
2:23:3
0:-1
4:16:3
1:-1
1:46:3
-1:-1
3:20:2
0:0
2:8:2
0:1
0:7:3
-1:-1
4:10:2
1:-1
1:7:2
-1:1
1:7:2
-1:-1
1:11:1
-1:-1
0:8:1
-1:-1
0:11:1
-1:1
1:8:1
-1:-1
1:8:1
-1:-1
4:10:1
1:-1
4:6:1
1:1
0:11:2
-1:1
1:7:2
-1:-1
0:9:1
-1:-1
0:9:1
-1:-1
4:8:1
1:-1
5:7:1
1:1
1:9:2
-1:1
0:7:2
-1:-1
4:11:1
1:-1
1:8:1
-1:1
1:8:1
-1:-1
4:8:1
1:-1
4:9:1
1:1
1:9:2
-1:1
1:6:2
-1:-1
4:8:1
1:-1
4:10:1
1:1
1:8:2
-1:1
1:7:2
-1:-1
4:8:1
1:-1
4:8:1
1:1
1:10:2
-1:1
1:7:2
-1:-1
0:8:1
-1:-1
2:10:1
0:-1
1:8:1
-1:1
1:8:1
-1:-1
4:8:1
1:-1
4:8:1
1:1
1:9:2
-1:1
1:7:2
-1:0
0:6:1
-1:-1
0:10:1
-1:-1
1:9:1
-1:-1
1:7:1
-1:-1
4:8:1
1:-1
4:8:1
1:1
1:9:2
-1:1
3:22:2
0:-1
4:8:2
1:1
2:24:3
0:0
1:10:3
-1:1
0:8:3
-1:-1
4:10:2
1:1
1:12:3
-1:0
4:5:2
1:-1
1:44:2
-1:1
3:11:2
0:1
0:11:3
-1:0
4:8:2
1:-1
0:7:2
-1:1
0:11:2
-1:1
1:10:2
-1:0
0:7:1
-1:-1
4:11:1
1:-1
1:6:1
-1:1
1:7:1
-1:-1
4:8:1
1:-1
4:9:1
1:1
3:17:2
0:-1
0:19:2
-1:-1
3:9:1
0:1
4:26:2
1:1
3:9:3
0:0
1:10:3
-1:0
1:10:2
-1:-1
0:8:1
-1:-1
3:11:1
0:-1
4:17:1
1:1
1:9:2
-1:1
0:13:2
-1:1
2:7:2
0:-1
4:9:2
1:1
3:11:3
0:0
3:9:3
0:0
3:9:3
0:0
4:11:3
1:0
0:11:4
-1:0
1:12:3
-1:-1
1:7:2
-1:-1
4:8:1
1:-1
3:11:1
0:1
1:7:2
-1:1
1:9:2
-1:-1
3:8:1
0:-1
0:11:1
-1:1
1:11:1
-1:-1
1:5:1
-1:-1
0:8:1
-1:-1
2:12:1
0:-1
1:8:1
-1:1
4:8:1
1:-1

Warmup complete CPU 0 instructions: 1000003 cycles: 500557 (Simulation time: 0 hr 0 min 3 sec) 

0:8:1
-1:1
1:4:1
-1:-1
0:4:1
-1:-1
1:3:1
-1:-1
1:5:1
-1:-1
4:3:1
1:-1
1:3:1
-1:-1
1:4:1
-1:-1
0:4:1
-1:-1
1:4:1
-1:-1
1:6:1
-1:1
3:2:1
0:-1
3:1:1
0:-1
1:2:1
-1:-1
4:4:1
1:-1
0:2:1
-1:-1
0:4:1
-1:-1
1:4:1
-1:-1
5:3:1
1:-1
1:2:1
-1:-1
1:4:1
-1:-1
4:2:1
1:-1
0:1:1
-1:-1
1:4:1
-1:-1
1:4:1
-1:-1
1:5:1
-1:-1
1:4:1
-1:-1
4:2:1
1:-1
1:11:1
-1:1
3:12:1
0:1
4:4:2
1:1
1:2:3
-1:-1
2:4:2
0:-1
0:3:2
-1:-1
1:4:1
-1:-1
0:4:1
-1:-1
4:3:1
1:-1
4:1:1
1:1
1:3:2
-1:-1
1:4:1
-1:-1
0:3:1
-1:-1
0:4:1
-1:-1
2:14:1
0:1
0:6:2
-1:-1
3:4:1
0:1
1:2:2
-1:-1
4:4:1
1:-1
5:3:1
1:-1
4:5:1
1:1
4:4:2
1:0
4:3:3
1:-1
1:2:3
-1:-1
1:3:2
-1:-1
0:4:1
-1:-1
3:5:1
0:-1
4:4:1
1:1
0:5:2
-1:0
3:5:1
0:-1
2:16:1
0:1
0:3:2
-1:-1
0:4:1
-1:1
1:5:1
-1:-1
0:5:1
-1:-1
4:3:1
1:-1
4:4:1
1:1
0:2:2
-1:-1
1:3:1
-1:1
1:5:1
-1:-1
0:6:1
-1:-1
1:4:1
-1:-1
0:9:1
-1:-1
0:6:1
-1:-1
2:2:1
0:-1
0:1:1
-1:-1
1:4:1
-1:-1
3:4:1
0:-1
3:2:1
0:-1
1:3:1
-1:-1
1:4:1
-1:-1
0:4:1
-1:-1
1:3:1
-1:1
1:4:1
-1:-1
0:3:1
-1:-1
1:4:1
-1:-1
1:4:1
-1:-1
4:4:1
1:-1
1:2:1
-1:-1
1:4:1
-1:-1
4:2:1
1:-1
4:2:1
1:-1
1:3:1
-1:-1
0:5:1
-1:-1
1:6:1
-1:1
3:2:1
0:-1
3:1:1
0:-1
4:4:1
1:1
0:2:2
-1:-1
1:4:1
-1:-1
1:4:1
-1:-1
4:4:1
1:-1
1:3:1
-1:-1
1:4:1
-1:-1
1:5:1
-1:-1
0:6:1
-1:1
1:2:1
-1:-1
2:4:1
0:-1
3:3:1
0:1
1:3:2
-1:-1
1:4:1
-1:-1
5:3:1
1:-1
3:7:1
0:1
5:5:2
1:0
4:8:3
1:0
1:8:4
-1:0
1:4:3
-1:-1
1:4:2
-1:-1
1:4:1
-1:-1
1:4:1
-1:-1
4:2:1
1:-1
0:3:1
-1:1
4:3:1
1:-1
2:16:1
0:-1
2:2:1
0:-1
0:10:1
-1:1
3:5:1
0:-1
2:17:1
0:-1
2:12:1
0:1
1:11:2
-1:1
3:2:2
0:-1
2:2:2
0:-1
2:4:2
0:-1
1:4:2
-1:-1
0:3:1
-1:-1
0:5:1
-1:-1
1:6:1
-1:-1
3:2:1
0:-1
3:1:1
0:-1
1:2:1
-1:-1
1:4:1
-1:-1
0:3:1
-1:-1
5:3:1
1:-1
4:8:1
1:1
4:1:2
1:0
1:2:3
-1:-1
1:5:2
-1:-1
1:3:1
-1:-1
0:5:1
-1:-1
3:3:1
0:-1
0:4:1
-1:-1
3:2:1
0:-1
1:3:1
-1:-1
1:4:1
-1:-1
3:2:1
0:-1
4:2:1
1:-1
1:3:1
-1:-1
4:5:1
1:-1
4:3:1
1:1
1:2:2
-1:-1
1:4:1
-1:-1
0:3:1
-1:-1
1:5:1
-1:-1
1:4:1
-1:-1
4:3:1
1:-1
1:5:1
-1:-1
3:3:1
0:-1
0:2:1
-1:-1
1:5:1
-1:-1
1:4:1
-1:-1
4:4:1
1:-1
1:2:1
-1:-1
1:4:1
-1:-1
0:3:1
-1:-1
1:4:1
-1:-1
1:4:1
-1:-1
4:4:1
1:-1
1:2:1
-1:-1
1:4:1
-1:-1
0:3:1
-1:-1
1:4:1
-1:-1
1:4:1
-1:-1
4:2:1
1:-1
1:4:1
-1:1
1:4:1
-1:-1
0:3:1
-1:-1
1:4:1
-1:-1
1:4:1
-1:-1
0:3:1
-1:-1
4:3:1
1:-1
1:3:1
-1:-1
1:4:1
-1:-1
1:3:1
-1:-1
0:4:1
-1:-1
4:2:1
1:-1
3:4:1
0:1
4:3:2
1:0
1:2:3
-1:-1
1:4:2
-1:-1
4:3:1
1:-1
1:4:1
-1:-1
1:4:1
-1:-1
4:4:1
1:-1
1:2:1
-1:-1
1:5:1
-1:-1
0:3:1
-1:-1
1:4:1
-1:-1
1:4:1
-1:-1
3:3:1
0:-1
4:2:1
1:1
1:1:2
-1:-1
1:4:1
-1:-1
0:3:1
-1:-1
1:4:1
-1:-1
1:4:1
-1:-1
4:4:1
1:-1
1:2:1
-1:-1
1:4:1
-1:-1
4:2:1
1:-1
0:1:1
-1:-1
1:3:1
-1:-1
1:5:1
-1:-1
3:4:1
0:-1
1:2:1
-1:-1
1:4:1
-1:-1
5:2:1
1:-1
4:2:1
1:-1
1:3:1
-1:-1
1:4:1
-1:-1
0:4:1
-1:-1
1:3:1
-1:-1
1:4:1
-1:-1
0:5:1
-1:-1
1:5:1
-1:-1
2:6:1
0:-1
4:3:1
1:-1
1:2:1
-1:-1
5:4:1
1:-1
0:2:1
-1:-1
1:4:1
-1:-1
0:4:1
-1:-1
1:6:1
-1:-1
3:3:1
0:-1
4:4:1
1:1
0:2:2
-1:-1
1:4:1
-1:-1
1:4:1
-1:-1
4:4:1
1:-1
1:2:1
-1:-1
1:4:1
-1:-1
0:3:1
-1:-1
1:4:1
-1:-1
1:4:1
-1:-1
4:2:1
1:-1
1:4:1
-1:1
0:4:1
-1:-1
2:14:1
0:1
1:4:2
-1:-1
3:2:1
0:-1
3:3:1
0:-1
3:3:1
0:-1
4:4:1
1:1
1:6:2
-1:0
1:6:1
-1:1
2:10:1
0:1
2:2:2
0:-1
2:4:2
0:-1
2:3:2
0:-1
3:2:2
0:-1
1:3:2
-1:-1
1:4:1
-1:-1
0:2:1
-1:-1
1:3:1
-1:1
1:4:1
-1:-1
0:4:1
-1:-1
1:4:1
-1:-1
1:6:1
-1:-1
4:3:1
1:-1
1:5:1
-1:-1
3:10:1
0:1
0:27:2
-1:-1
1:3:1
-1:-1
0:4:1
-1:-1
1:4:1
-1:-1
0:3:1
-1:-1
0:4:1
-1:-1
0:5:1
-1:-1
3:3:1
0:-1
4:1:1
1:1
1:3:2
-1:-1
4:3:1
1:-1
0:3:1
-1:-1
1:4:1
-1:-1
0:4:1
-1:-1
4:4:1
1:-1
3:1:1
0:-1
1:2:1
-1:-1
2:4:1
0:-1
4:3:1
1:-1
1:5:1
-1:-1
1:5:1
-1:-1
4:3:1
1:-1
1:2:1
-1:-1
1:3:1
-1:-1
0:4:1
-1:-1
1:4:1
-1:-1
1:5:1
-1:-1
3:2:1
0:-1
4:3:1
1:1
1:1:2
-1:-1
1:4:1
-1:-1
5:3:1
1:-1
2:14:1
0:1
3:2:2
0:-1
2:14:2
0:0
0:4:2
-1:-1
0:5:1
-1:1
3:3:1
0:-1
2:3:1
0:-1
1:11:1
-1:-1
0:9:1
-1:-1
2:6:1
0:-1
0:3:1
-1:-1
1:4:1
-1:-1
1:4:1
-1:-1
4:2:1
1:-1
0:3:1
-1:1
1:7:1
-1:-1
0:3:1
-1:-1
1:5:1
-1:-1
4:5:1
1:-1
4:6:1
1:1
2:16:2
0:0
0:2:2
-1:-1
0:3:1
-1:-1
1:4:1
-1:-1
0:3:1
-1:-1
1:4:1
-1:-1
1:4:1
-1:-1
4:2:1
1:-1
0:3:1
-1:1
1:2:1
-1:-1
1:4:1
-1:-1
0:4:1
-1:-1
1:4:1
-1:-1
1:4:1
-1:-1
4:2:1
1:-1
0:1:1
-1:-1
1:3:1
-1:-1
1:4:1
-1:-1
0:4:1
-1:-1
1:4:1
-1:-1
1:5:1
-1:-1
3:2:1
0:-1
4:2:1
1:1
1:4:2
-1:-1
1:5:1
-1:-1
4:3:1
1:-1
1:4:1
-1:-1
1:4:1
-1:-1
0:3:1
-1:-1
1:3:1
-1:-1
1:5:1
-1:-1
0:3:1
-1:-1
1:4:1
-1:-1
1:4:1
-1:-1
4:2:1
1:-1
4:2:1
1:1
1:2:2
-1:-1
1:4:1
-1:-1
0:3:1
-1:-1
1:4:1
-1:-1
1:4:1
-1:-1
0:3:1
-1:-1
1:4:1
-1:-1
1:4:1
-1:-1
4:2:1
1:-1
0:1:1
-1:-1
1:4:1
-1:-1
1:4:1
-1:-1
0:3:1
-1:-1
1:3:1
-1:-1
1:4:1
-1:-1
4:2:1
1:-1
4:2:1
1:-1
1:2:1
-1:-1
1:5:1
-1:-1
4:3:1
1:-1
1:3:1
-1:-1
1:4:1
-1:-1
0:3:1
-1:-1
1:4:1
-1:-1
1:4:1
-1:-1
0:3:1
-1:-1
1:3:1
-1:-1
1:4:1
-1:-1
4:2:1
1:-1
4:4:1
1:1
1:1:2
-1:-1
1:5:1
-1:-1
0:3:1
-1:-1
1:3:1
-1:-1
1:4:1
-1:-1
0:3:1
-1:-1
1:4:1
-1:-1
1:4:1
-1:-1
5:3:1
1:-1
1:2:1
-1:-1
1:4:1
-1:-1
0:3:1
-1:-1
0:4:1
-1:-1
1:5:1
-1:-1
4:2:1
1:-1
0:3:1
-1:1
1:2:1
-1:-1
1:4:1
-1:-1
0:3:1
-1:-1
1:4:1
-1:-1
1:9:1
-1:1
1:4:1
-1:-1
1:5:1
-1:-1
3:13:1
0:1
0:7:2
-1:0
0:3:1
-1:-1
1:4:1
-1:-1
1:4:1
-1:-1
4:2:1
1:-1
4:2:1
1:-1
1:4:1
-1:-1
3:6:1
0:-1
4:2:1
1:1
3:18:2
0:-1
2:7:2
0:0
0:3:2
-1:0
4:5:1
1:-1
0:3:1
-1:-1
4:5:1
1:-1
4:4:1
1:1
5:2:2
1:-1
1:2:2
-1:-1
1:5:1
-1:-1
3:5:1
0:-1
2:6:1
0:1
2:6:2
0:1
1:4:3
-1:0
0:10:2
-1:-1
1:10:1
-1:1
0:3:1
-1:1
1:7:1
-1:-1
0:5:1
-1:-1
3:2:1
0:-1
1:4:1
-1:-1
0:2:1
-1:-1
1:3:1
-1:1
1:4:1
-1:-1
3:3:1
0:-1
4:3:1
1:1
0:2:2
-1:-1
0:8:1
-1:1
2:9:1
0:1
0:5:2
-1:-1
3:4:1
0:-1
0:3:1
-1:-1
1:4:1
-1:-1
1:4:1
-1:-1
3:3:1
0:-1
4:1:1
1:1
1:3:2
-1:-1
0:5:1
-1:-1
3:3:1
0:-1
1:4:1
-1:-1
0:4:1
-1:-1
4:2:1
1:-1
4:1:1
1:-1
1:2:1
-1:-1
1:6:1
-1:-1
4:4:1
1:-1
1:4:1
-1:-1
1:5:1
-1:-1
4:3:1
1:-1
3:4:1
0:-1
0:5:1
-1:-1
0:3:1
-1:-1
3:5:1
0:-1
3:4:1
0:1
4:2:2
1:0
0:6:3
-1:-1
3:4:2
0:-1
1:5:2
-1:-1
0:11:1
-1:-1
2:4:1
0:-1
3:2:1
0:-1
1:2:1
-1:-1
0:4:1
-1:-1
0:4:1
-1:-1
1:4:1
-1:-1
4:8:1
1:-1
4:4:1
1:1
1:14:2
-1:0
1:4:1
-1:-1
4:2:1
1:-1
3:4:1
0:1
1:2:2
-1:-1
1:4:1
-1:-1
4:3:1
1:-1
4:4:1
1:1
2:17:2
0:-1
2:3:2
0:-1
2:18:2
0:0
2:10:2
0:1
3:5:3
0:0
2:2:3
0:-1
2:2:3
0:-1
1:4:3
-1:-1
4:2:2
1:-1
4:4:2
1:0
1:2:3
-1:-1
1:6:2
-1:-1
3:3:1
0:-1
1:2:1
-1:-1
1:4:1
-1:-1
3:3:1
0:-1
5:10:1
1:1
1:2:2
-1:-1
1:4:1
-1:-1
0:3:1
-1:-1
1:5:1
-1:1
1:5:1
-1:-1
4:2:1
1:-1
1:3:1
-1:-1
1:5:1
-1:-1
0:3:1
-1:-1
1:4:1
-1:-1
1:5:1
-1:-1
4:3:1
1:-1
1:2:1
-1:-1
1:4:1
-1:-1
0:3:1
-1:-1
1:4:1
-1:-1
1:5:1
-1:-1
0:2:1
-1:-1
1:5:1
-1:1
3:3:1
0:-1
0:2:1
-1:-1
1:4:1
-1:-1
1:4:1
-1:-1
4:4:1
1:-1
1:2:1
-1:-1
1:4:1
-1:-1
0:3:1
-1:-1
1:4:1
-1:-1
1:6:1
-1:-1
4:4:1
1:-1
1:3:1
-1:-1
1:4:1
-1:-1
4:2:1
1:-1
4:3:1
1:1
1:2:2
-1:-1
1:4:1
-1:-1
0:5:1
-1:-1
1:3:1
-1:-1
1:4:1
-1:-1
0:3:1
-1:-1
1:4:1
-1:-1
1:4:1
-1:-1
4:6:1
1:-1
1:3:1
-1:-1
1:4:1
-1:-1
0:3:1
-1:-1
1:4:1
-1:-1
1:4:1
-1:-1
3:2:1
0:-1
4:4:1
1:1
1:1:2
-1:-1
1:4:1
-1:-1
1:4:1
-1:-1
1:5:1
-1:-1
1:4:1
-1:-1
4:4:1
1:-1
1:2:1
-1:-1
1:4:1
-1:-1
0:3:1
-1:-1
1:4:1
-1:-1
1:4:1
-1:-1
4:3:1
1:-1
4:1:1
1:-1
1:2:1
-1:-1
1:4:1
-1:-1
0:3:1
-1:-1
1:4:1
-1:-1
1:4:1
-1:-1
4:4:1
1:-1
1:2:1
-1:-1
1:7:1
-1:-1
3:3:1
0:-1
3:2:1
0:-1
0:2:1
-1:-1
1:5:1
-1:-1
2:3:1
0:-1
3:3:1
0:1
1:1:2
-1:-1
1:4:1
-1:-1
0:4:1
-1:-1
1:7:1
-1:-1
2:5:1
0:1
0:8:2
-1:1
2:3:2
0:1
3:1:3
0:0
3:3:3
0:0
4:1:3
1:-1
0:2:3
-1:-1
2:5:2
0:1
3:2:3
0:-1
4:2:3
1:-1
5:4:3
1:0
6:2:4
1:0
1:3:5
-1:-1
5:4:4
1:-1
4:3:4
1:0
0:2:5
-1:-1
1:4:4
-1:-1
5:3:3
1:-1
1:3:3
-1:-1
1:4:2
-1:-1
5:4:1
1:-1
1:2:1
-1:-1
1:4:1
-1:-1
4:2:1
1:-1
4:3:1
1:1
1:2:2
-1:-1
1:4:1
-1:-1
3:6:1
0:1
1:3:2
-1:-1
0:7:1
-1:-1
2:13:1
0:1
1:5:2
-1:-1
1:2:1
-1:-1
0:2:1
-1:-1
1:3:1
-1:-1
1:4:1
-1:-1
3:6:1
0:-1
2:17:1
0:1
2:2:2
0:-1
2:4:2
0:-1
2:2:2
0:-1
3:3:2
0:-1
1:3:2
-1:-1
1:4:1
-1:-1
0:2:1
-1:-1
1:3:1
-1:1
1:5:1
-1:-1
0:3:1
-1:-1
0:4:1
-1:-1
3:2:1
0:-1
3:7:1
0:1
3:2:2
0:-1
1:4:2
-1:-1
0:11:1
-1:1
0:24:1
-1:1
1:3:1
-1:-1
0:3:1
-1:-1
3:4:1
0:-1
1:2:1
-1:-1
1:5:1
-1:-1
0:4:1
-1:-1
5:3:1
1:-1
1:2:1
-1:-1
5:3:1
1:-1
0:3:1
-1:-1
1:5:1
-1:-1
0:4:1
-1:-1
2:6:1
0:-1
3:1:1
0:-1
1:2:1
-1:-1
2:5:1
0:-1
4:3:1
1:-1
1:4:1
-1:-1
1:4:1
-1:-1
4:3:1
1:-1
1:4:1
-1:-1
1:3:1
-1:-1
0:4:1
-1:-1
1:4:1
-1:-1
1:4:1
-1:-1
3:4:1
0:-1
4:1:1
1:-1
1:2:1
-1:-1
1:4:1
-1:-1
0:3:1
-1:-1
3:7:1
0:-1
1:7:1
-1:1
1:4:1
-1:-1
0:3:1
-1:-1
3:13:1
0:-1
1:12:1
-1:1
0:3:1
-1:-1
0:4:1
-1:-1
1:5:1
-1:1
4:3:1
1:-1
2:3:1
0:-1
1:4:1
-1:-1
3:12:1
0:1
0:16:2
-1:0
0:4:1
-1:-1
0:8:1
-1:-1
0:4:1
-1:-1
0:4:1
-1:-1
0:9:1
-1:-1
2:2:1
0:-1
2:5:1
0:1
0:5:2
-1:-1
0:4:1
-1:-1
0:3:1
-1:-1
1:6:1
-1:-1
1:4:1
-1:-1
4:1:1
1:-1
0:4:1
-1:-1
2:12:1
0:1
4:5:2
1:1
3:1:3
0:-1
2:2:3
0:-1
1:5:3
-1:-1
0:3:2
-1:-1
1:6:1
-1:-1
1:5:1
-1:-1
4:3:1
1:-1
1:2:1
-1:-1
1:4:1
-1:-1
4:2:1
1:-1
4:3:1
1:1
1:3:2
-1:-1
1:4:1
-1:-1
0:3:1
-1:-1
0:3:1
-1:-1
1:5:1
-1:-1
0:3:1
-1:-1
1:5:1
-1:-1
1:4:1
-1:-1
3:2:1
0:-1
4:1:1
1:1
1:2:2
-1:-1
1:4:1
-1:-1
0:5:1
-1:-1
1:6:1
-1:-1
1:4:1
-1:-1
3:2:1
0:-1
3:1:1
0:-1
1:4:1
-1:-1
1:4:1
-1:-1
4:3:1
1:-1
1:6:1
-1:-1
1:4:1
-1:-1
4:3:1
1:-1
1:2:1
-1:-1
1:4:1
-1:-1
0:3:1
-1:-1
1:5:1
-1:-1
1:4:1
-1:-1
4:2:1
1:-1
4:2:1
1:1
1:1:2
-1:-1
1:4:1
-1:-1
5:3:1
1:-1
1:5:1
-1:-1
1:4:1
-1:-1
4:3:1
1:-1
1:2:1
-1:-1
1:4:1
-1:-1
0:3:1
-1:-1
0:3:1
-1:-1
0:5:1
-1:-1
3:3:1
0:1
4:2:2
1:0
1:2:3
-1:-1
1:4:2
-1:-1
5:2:1
1:-1
4:2:1
1:-1
1:3:1
-1:-1
1:4:1
-1:-1
4:3:1
1:-1
1:2:1
-1:-1
1:4:1
-1:-1
0:3:1
-1:-1
1:3:1
-1:-1
1:5:1
-1:-1
4:3:1
1:-1
1:2:1
-1:-1
1:4:1
-1:-1
4:2:1
1:-1
4:2:1
1:-1
1:5:1
-1:-1
1:4:1
-1:-1
0:3:1
-1:-1
1:3:1
-1:-1
1:4:1
-1:-1
0:3:1
-1:-1
1:5:1
-1:-1
1:4:1
-1:-1
4:3:1
1:-1
1:2:1
-1:-1
1:4:1
-1:-1
4:2:1
1:-1
5:3:1
1:1
1:3:2
-1:-1
1:4:1
-1:-1
4:3:1
1:-1
1:4:1
-1:-1
1:5:1
-1:1
0:3:1
-1:-1
0:11:1
-1:-1
1:3:1
-1:-1
3:12:1
0:1
4:2:2
1:-1
1:2:2
-1:-1
2:4:1
0:-1
1:3:1
-1:-1
1:5:1
-1:-1
1:4:1
-1:-1
4:2:1
1:-1
4:1:1
1:-1
1:2:1
-1:-1
1:4:1
-1:-1
5:3:1
1:-1
1:5:1
-1:-1
1:6:1
-1:-1
2:10:1
0:1
3:5:2
0:-1
2:5:2
0:0
3:2:2
0:-1
1:2:2
-1:-1
2:5:1
0:-1
0:3:1
-1:-1
1:5:1
-1:-1
1:4:1
-1:-1
3:2:1
0:-1
4:2:1
1:-1
1:5:1
-1:-1
0:3:1
-1:-1
2:5:1
0:-1
3:5:1
0:1
4:4:2
1:0
4:1:3
1:0
1:2:4
-1:-1
5:4:3
1:-1
2:17:3
0:0
0:5:3
-1:0
1:4:2
-1:-1
0:3:1
-1:-1
1:4:1
-1:-1
1:4:1
-1:-1
4:2:1
1:-1
1:4:1
-1:-1
1:4:1
-1:-1
0:3:1
-1:-1
1:4:1
-1:-1
0:9:1
-1:-1
2:2:1
0:-1
0:4:1
-1:-1
0:3:1
-1:-1
1:4:1
-1:-1
0:3:1
-1:-1
1:4:1
-1:-1
1:4:1
-1:-1
4:1:1
1:-1
0:1:1
-1:-1
1:4:1
-1:1
1:4:1
-1:-1
4:3:1
1:-1
1:4:1
-1:-1
1:4:1
-1:-1
0:3:1
-1:-1
1:3:1
-1:-1
1:4:1
-1:-1
0:3:1
-1:-1
1:5:1
-1:-1
1:4:1
-1:-1
4:2:1
1:-1
4:3:1
1:1
1:2:2
-1:-1
4:4:1
1:-1
0:2:1
-1:-1
1:5:1
-1:-1
0:4:1
-1:-1
0:3:1
-1:-1
1:4:1
-1:-1
1:4:1
-1:-1
0:3:1
-1:-1
0:5:1
-1:-1
1:5:1
-1:-1
0:3:1
-1:-1
1:3:1
-1:-1
1:4:1
-1:-1
4:2:1
1:-1
2:15:1
0:1
2:4:2
0:-1
2:3:2
0:-1
1:4:2
-1:-1
1:5:1
-1:-1
4:4:1
1:-1
4:3:1
1:-1
2:20:1
0:-1
2:8:1
0:1
2:23:2
0:0
2:13:2
0:0
3:7:2
0:1
3:5:3
0:0
4:3:3
1:0
1:6:4
-1:-1
1:4:3
-1:-1
3:2:2
0:-1
1:5:2
-1:0
1:5:1
-1:-1
0:3:1
-1:-1
1:3:1
-1:-1
1:4:1
-1:-1
4:2:1
1:-1
4:1:1
1:1
4:6:2
1:0
5:5:3
1:0
1:2:4
-1:-1
1:4:3
-1:-1
3:2:2
0:-1
4:5:2
1:0
1:1:3
-1:-1
1:4:2
-1:-1
4:3:1
1:-1
1:3:1
-1:-1
1:4:1
-1:-1
0:3:1
-1:-1
1:4:1
-1:-1
1:4:1
-1:-1
4:4:1
1:-1
1:2:1
-1:-1
1:4:1
-1:-1
0:3:1
-1:-1
1:4:1
-1:-1
1:4:1
-1:-1
4:1:1
1:-1
0:2:1
-1:-1
1:3:1
-1:1
1:4:1
-1:-1
4:3:1
1:-1
1:5:1
-1:-1
1:4:1
-1:-1
4:4:1
1:-1
1:2:1
-1:-1
1:4:1
-1:-1
0:5:1
-1:-1
1:4:1
-1:-1
1:4:1
-1:-1
3:2:1
0:-1
4:2:1
1:-1
1:4:1
-1:-1
4:4:1
1:-1
0:2:1
-1:-1
4:4:1
1:-1
4:4:1
1:1
5:3:2
1:-1
0:2:2
-1:-1
1:4:1
-1:-1
0:3:1
-1:-1
1:4:1
-1:-1
1:4:1
-1:-1
4:4:1
1:-1
1:3:1
-1:-1
1:4:1
-1:-1
0:3:1
-1:-1
1:4:1
-1:-1
1:4:1
-1:-1
4:5:1
1:-1
1:2:1
-1:-1
1:4:1
-1:-1
4:2:1
1:-1
0:1:1
-1:-1
1:4:1
-1:-1
1:4:1
-1:-1
4:4:1
1:-1
1:2:1
-1:-1
1:4:1
-1:-1
4:2:1
1:-1
3:5:1
0:-1
1:3:1
-1:-1
3:4:1
0:-1
0:3:1
-1:-1
1:6:1
-1:1
3:4:1
0:-1
0:3:1
-1:-1
1:4:1
-1:-1
4:4:1
1:-1
5:3:1
1:-1
1:2:1
-1:-1
0:4:1
-1:-1
4:2:1
1:-1
0:4:1
-1:-1
1:2:1
-1:-1
3:5:1
0:-1
4:2:1
1:1
1:2:2
-1:-1
1:4:1
-1:-1
0:3:1
-1:-1
1:4:1
-1:-1
0:4:1
-1:-1
4:3:1
1:-1
4:1:1
1:1
1:2:2
-1:-1
1:4:1
-1:-1
0:3:1
-1:-1
1:3:1
-1:-1
1:5:1
-1:-1
4:2:1
1:-1
3:2:1
0:-1
1:2:1
-1:-1
1:4:1
-1:-1
4:3:1
1:-1
1:4:1
-1:-1
1:4:1
-1:-1
4:5:1
1:-1
1:2:1
-1:-1
1:6:1
-1:-1
0:3:1
-1:-1
1:4:1
-1:-1
1:4:1
-1:-1
4:2:1
1:-1
4:2:1
1:-1
1:2:1
-1:-1
1:4:1
-1:-1
0:3:1
-1:-1
1:4:1
-1:-1
1:4:1
-1:-1
4:4:1
1:-1
1:2:1
-1:-1
0:4:1
-1:-1
2:16:1
0:1
3:4:2
0:0
2:2:2
0:-1
1:2:2
-1:-1
0:4:1
-1:-1
4:3:1
1:-1
3:8:1
0:1
1:10:2
-1:-1
2:5:1
0:-1
2:4:1
0:-1
5:3:1
1:-1
1:5:1
-1:-1
1:4:1
-1:-1
0:2:1
-1:-1
1:3:1
-1:1
1:4:1
-1:-1
0:3:1
-1:-1
1:5:1
-1:-1
1:7:1
-1:-1
3:2:1
0:-1
2:4:1
0:1
3:1:2
0:-1
3:12:2
0:1
0:27:3
-1:-1
0:3:2
-1:-1
0:4:1
-1:-1
1:3:1
-1:-1
1:4:1
-1:-1
1:6:1
-1:-1
3:2:1
0:-1
3:4:1
0:1
1:1:2
-1:-1
3:5:1
0:-1
0:4:1
-1:-1
1:4:1
-1:-1
0:4:1
-1:-1
5:4:1
1:1
1:2:2
-1:-1
2:4:1
0:-1
0:3:1
-1:-1
1:4:1
-1:-1
1:5:1
-1:-1
4:3:1
1:-1
1:2:1
-1:-1
1:4:1
-1:-1
4:3:1
1:-1
0:4:1
-1:1
3:2:1
0:-1
4:5:1
1:1
5:2:2
1:0
1:2:3
-1:-1
1:4:2
-1:-1
0:3:1
-1:-1
4:13:1
1:-1
4:5:1
1:1
1:6:2
-1:-1
2:16:1
0:1
0:4:2
-1:-1
1:5:1
-1:1
2:2:1
0:-1
5:1:1
1:-1
0:2:1
-1:-1
0:8:1
-1:-1
3:13:1
0:1
2:3:2
0:-1
0:4:2
-1:-1
2:3:1
0:-1
1:4:1
-1:-1
0:5:1
-1:-1
3:3:1
0:-1
4:1:1
1:1
1:5:2
-1:-1
1:6:1
-1:-1
0:3:1
-1:-1
1:4:1
-1:-1
0:4:1
-1:-1
4:2:1
1:-1
5:4:1
1:1
3:13:2
0:0
3:3:2
0:0
1:2:2
-1:-1
1:4:1
-1:-1
0:4:1
-1:-1
1:4:1
-1:-1
1:4:1
-1:-1
0:3:1
-1:-1
1:4:1
-1:-1
1:4:1
-1:-1
4:2:1
1:-1
4:3:1
1:-1
1:5:1
-1:-1
3:4:1
0:-1
1:3:1
-1:-1
1:4:1
-1:-1
0:5:1
-1:-1
0:5:1
-1:-1
1:4:1
-1:-1
1:4:1
-1:-1
4:3:1
1:-1
1:2:1
-1:-1
1:4:1
-1:-1
0:4:1
-1:-1
1:4:1
-1:-1
1:4:1
-1:-1
4:2:1
1:-1
0:3:1
-1:1
1:5:1
-1:-1
0:5:1
-1:-1
1:4:1
-1:-1
1:4:1
-1:-1
3:2:1
0:-1
4:1:1
1:1
1:3:2
-1:-1
1:4:1
-1:-1
0:4:1
-1:-1
1:4:1
-1:-1
1:4:1
-1:-1
4:2:1
1:-1
4:2:1
1:1
1:3:2
-1:-1
1:5:1
-1:-1
4:4:1
1:-1
1:4:1
-1:-1
1:4:1
-1:-1
4:3:1
1:-1
1:2:1
-1:-1
1:5:1
-1:-1
0:3:1
-1:-1
1:3:1
-1:-1
1:5:1
-1:-1
2:2:1
0:-1
3:2:1
0:1
1:1:2
-1:-1
1:4:1
-1:-1
0:2:1
-1:-1
0:1:1
-1:-1
1:4:1
-1:-1
1:4:1
-1:-1
4:3:1
1:-1
1:2:1
-1:-1
1:4:1
-1:-1
0:2:1
-1:-1
0:2:1
-1:-1
1:3:1
-1:-1
1:5:1
-1:-1
4:3:1
1:-1
1:2:1
-1:-1
1:4:1
-1:-1
4:3:1
1:-1
4:3:1
1:-1
1:3:1
-1:-1
1:4:1
-1:-1
4:3:1
1:-1
1:2:1
-1:-1
1:4:1
-1:-1
0:4:1
-1:-1
1:4:1
-1:-1
1:4:1
-1:-1
4:3:1
1:-1
1:2:1
-1:-1
1:4:1
-1:-1
4:3:1
1:-1
4:3:1
1:-1
1:4:1
-1:-1
0:7:1
-1:1
3:7:1
0:-1
3:5:1
0:1
0:2:2
-1:-1
5:12:1
1:-1
3:15:1
0:-1
4:2:1
1:-1
0:5:1
-1:-1
1:4:1
-1:-1
0:3:1
-1:-1
1:5:1
-1:-1
3:5:1
0:-1
0:3:1
-1:-1
1:3:1
-1:-1
1:4:1
-1:-1
4:3:1
1:-1
1:5:1
-1:-1
1:7:1
-1:-1
1:12:1
-1:1
3:2:1
0:-1
1:5:1
-1:-1
3:3:1
0:-1
4:3:1
1:-1
4:4:1
1:-1
0:2:1
-1:-1
0:4:1
-1:-1
1:4:1
-1:-1
4:1:1
1:-1
4:3:1
1:1
1:1:2
-1:-1
1:4:1
-1:-1
2:4:1
0:-1
1:4:1
-1:-1
1:4:1
-1:-1
4:3:1
1:-1
1:2:1
-1:-1
0:5:1
-1:-1
4:5:1
1:-1
2:7:1
0:-1
2:10:1
0:1
3:4:2
0:0
4:2:2
1:0
1:2:3
-1:-1
0:4:2
-1:-1
0:4:1
-1:-1
1:4:1
-1:-1
1:4:1
-1:-1
0:2:1
-1:-1
1:3:1
-1:1
0:5:1
-1:-1
3:4:1
0:-1
0:1:1
-1:-1
1:4:1
-1:-1
0:8:1
-1:-1
2:6:1
0:-1
0:2:1
-1:-1
0:4:1
-1:-1
3:3:1
0:-1
0:5:1
-1:1
1:2:1
-1:-1
4:4:1
1:-1
4:1:1
1:1
1:4:2
-1:-1
1:6:1
-1:-1
4:2:1
1:-1
0:1:1
-1:-1
1:4:1
-1:-1
1:4:1
-1:-1
4:4:1
1:-1
1:3:1
-1:-1
0:4:1
-1:-1
3:4:1
0:-1
3:2:1
0:-1
1:6:1
-1:-1
1:4:1
-1:-1
0:6:1
-1:-1
1:4:1
-1:1
1:5:1
-1:-1
0:3:1
-1:-1
4:4:1
1:-1
4:4:1
1:1
5:2:2
1:-1
0:3:2
-1:-1
1:5:1
-1:-1
4:2:1
1:-1
4:3:1
1:1
0:3:2
-1:-1
1:5:1
-1:-1
0:3:1
-1:-1
1:3:1
-1:-1
1:5:1
-1:-1
5:3:1
1:-1
1:3:1
-1:-1
5:7:1
1:-1
5:2:1
1:1
4:10:2
1:-1
1:7:2
-1:1
1:4:2
-1:-1
1:4:1
-1:-1
1:4:1
-1:-1
1:4:1
-1:-1
4:2:1
1:-1
4:1:1
1:-1
1:2:1
-1:-1
1:4:1
-1:-1
0:3:1
-1:-1
2:18:1
0:1
3:4:2
0:0
0:2:2
-1:-1
2:12:1
0:1
3:7:2
0:-1
3:14:2
0:1
3:9:3
0:0
2:3:3
0:0
3:3:3
0:0
1:13:3
-1:0
3:3:2
0:-1
3:4:2
0:0
4:2:2
1:0
2:2:3
0:-1
0:5:3
-1:-1
0:4:2
-1:-1
1:4:1
-1:-1
1:4:1
-1:-1
4:3:1
1:-1
1:2:1
-1:-1
0:4:1
-1:-1
4:3:1
1:-1
5:1:1
1:1
5:3:2
1:0
4:6:3
1:0
5:1:4
1:0
1:2:5
-1:-1
1:4:4
-1:-1
3:5:3
0:-1
3:4:3
0:-1
0:4:3
-1:-1
0:6:2
-1:-1
3:2:1
0:-1
1:3:1
-1:-1
1:4:1
-1:-1
0:4:1
-1:-1
1:4:1
-1:-1
1:4:1
-1:-1
0:3:1
-1:-1
1:3:1
-1:-1
1:4:1
-1:-1
4:3:1
1:-1
4:3:1
1:-1
1:4:1
-1:-1
0:7:1
-1:1
0:4:1
-1:-1
2:4:1
0:1
3:4:2
0:0
0:3:2
-1:-1
1:4:1
-1:-1
3:6:1
0:1
3:5:2
0:-1
4:2:2
1:-1
3:5:2
0:0
0:3:2
-1:-1
0:5:1
-1:-1
3:4:1
0:-1
4:2:1
1:1
1:3:2
-1:-1
1:4:1
-1:-1
0:4:1
-1:-1
1:4:1
-1:-1
1:6:1
-1:-1
3:2:1
0:-1
4:1:1
1:1
1:2:2
-1:-1
1:4:1
-1:-1
0:5:1
-1:-1
1:4:1
-1:-1
1:4:1
-1:-1
3:2:1
0:-1
4:1:1
1:1
1:3:2
-1:-1
1:4:1
-1:-1
4:5:1
1:-1
1:4:1
-1:-1
1:4:1
-1:-1
4:3:1
1:-1
1:2:1
-1:-1
1:4:1
-1:-1
0:4:1
-1:-1
1:4:1
-1:-1
1:4:1
-1:-1
4:2:1
1:-1
0:3:1
-1:-1
1:2:1
-1:-1
1:4:1
-1:-1
0:4:1
-1:-1
1:4:1
-1:-1
1:4:1
-1:-1
4:3:1
1:-1
1:2:1
-1:-1
1:4:1
-1:-1
0:2:1
-1:-1
0:2:1
-1:-1
1:4:1
-1:-1
1:4:1
-1:-1
4:3:1
1:-1
1:2:1
-1:-1
1:4:1
-1:-1
4:2:1
1:-1
4:3:1
1:-1
1:2:1
-1:-1
1:5:1
-1:-1
4:4:1
1:-1
1:2:1
-1:-1
1:4:1
-1:-1
0:4:1
-1:-1
1:4:1
-1:-1
1:4:1
-1:-1
4:4:1
1:-1
1:2:1
-1:-1
1:4:1
-1:-1
4:2:1
1:-1
4:5:1
1:1
1:1:2
-1:-1
1:5:1
-1:-1
3:3:1
0:-1
1:2:1
-1:-1
1:4:1
-1:-1
0:4:1
-1:-1
1:3:1
-1:-1
1:4:1
-1:-1
5:3:1
1:-1
1:2:1
-1:-1
1:4:1
-1:-1
0:4:1
-1:-1
1:4:1
-1:-1
1:4:1
-1:-1
3:5:1
0:1
1:3:2
-1:0
3:6:1
0:-1
0:3:1
-1:-1
1:4:1
-1:-1
0:4:1
-1:-1
4:3:1
1:-1
1:4:1
-1:-1
1:4:1
-1:1
2:6:1
0:1
2:8:2
0:0
0:11:2
-1:-1
2:10:1
0:1
3:2:2
0:-1
3:4:2
0:0
3:3:2
0:0
1:1:2
-1:-1
1:5:1
-1:-1
5:3:1
1:-1
1:5:1
-1:-1
0:8:1
-1:1
2:10:1
0:1
2:4:2
0:-1
0:4:2
-1:-1
1:4:1
-1:-1
1:5:1
-1:-1
4:1:1
1:-1
4:3:1
1:1
1:1:2
-1:-1
1:4:1
-1:-1
0:4:1
-1:-1
1:4:1
-1:-1
1:7:1
-1:-1
3:3:1
0:-1
1:4:1
-1:-1
3:11:1
0:1
0:25:2
-1:-1
0:4:1
-1:-1
0:6:1
-1:1
3:2:1
0:-1
3:3:1
0:-1
1:2:1
-1:-1
1:4:1
-1:-1
4:3:1
1:-1
1:3:1
-1:-1
4:5:1
1:-1
0:4:1
-1:-1
1:4:1
-1:-1
0:4:1
-1:-1
0:4:1
-1:1
1:3:1
-1:-1
2:4:1
0:-1
4:2:1
1:-1
4:3:1
1:1
1:2:2
-1:-1
1:4:1
-1:-1
4:3:1
1:-1
1:3:1
-1:-1
1:3:1
-1:-1
0:5:1
-1:-1
1:4:1
-1:-1
1:4:1
-1:-1
3:2:1
0:-1
0:1:1
-1:-1
1:3:1
-1:-1
1:4:1
-1:-1
0:3:1
-1:-1
3:14:1
0:-1
4:2:1
1:-1
2:14:1
0:1
3:5:2
0:-1
1:3:2
-1:-1
0:4:1
-1:-1
1:6:1
-1:1
0:3:1
-1:-1
2:3:1
0:-1
1:6:1
-1:-1
1:11:1
-1:1
2:12:1
0:1
4:8:2
1:0
3:8:3
0:0
0:1:3
-1:-1
0:4:2
-1:-1
1:7:1
-1:-1
3:2:1
0:-1
3:3:1
0:-1
0:4:1
-1:-1
1:4:1
-1:-1
4:3:1
1:-1
1:6:1
-1:-1
1:5:1
-1:-1
0:4:1
-1:-1
1:4:1
-1:-1
1:4:1
-1:-1
0:4:1
-1:-1
1:3:1
-1:1
0:4:1
-1:-1
0:3:1
-1:-1
1:11:1
-1:-1
3:2:1
0:-1
4:1:1
1:-1
1:2:1
-1:-1
1:4:1
-1:-1
4:4:1
1:-1
0:4:1
-1:-1
1:5:1
-1:-1
4:3:1
1:-1
1:2:1
-1:-1
1:4:1
-1:-1
0:3:1
-1:-1
0:4:1
-1:-1
1:5:1
-1:-1
3:4:1
0:-1
3:2:1
0:1
1:1:2
-1:-1
1:4:1
-1:-1
0:3:1
-1:-1
0:6:1
-1:-1
1:5:1
-1:-1
4:3:1
1:-1
1:2:1
-1:-1
1:4:1
-1:-1
0:4:1
-1:-1
4:2:1
1:-1
1:4:1
-1:-1
1:4:1
-1:-1
3:3:1
0:-1
1:2:1
-1:-1
1:4:1
-1:-1
4:4:1
1:-1
0:4:1
-1:1
3:3:1
0:-1
3:4:1
0:1
3:2:2
0:0
1:2:2
-1:-1
1:4:1
-1:-1
4:2:1
1:-1
0:1:1
-1:-1
0:4:1
-1:-1
1:5:1
-1:-1
4:3:1
1:-1
1:2:1
-1:-1
1:4:1
-1:-1
4:2:1
1:-1
4:2:1
1:-1
0:3:1
-1:-1
1:5:1
-1:-1
4:3:1
1:-1
1:2:1
-1:-1
1:4:1
-1:-1
0:3:1
-1:-1
0:3:1
-1:-1
1:6:1
-1:-1
3:3:1
0:-1
1:3:1
-1:-1
1:4:1
-1:-1
5:2:1
1:-1
4:3:1
1:1
0:2:2
-1:-1
1:5:1
-1:-1
3:4:1
0:1
3:2:2
0:0
4:1:2
1:-1
4:4:2
1:0
0:2:3
-1:-1
0:3:2
-1:-1
1:5:1
-1:-1
4:2:1
1:-1
5:1:1
1:1
0:2:2
-1:-1
1:4:1
-1:-1
0:3:1
-1:-1
0:4:1
-1:-1
0:5:1
-1:-1
3:3:1
0:-1
4:1:1
1:-1
1:2:1
-1:-1
1:4:1
-1:-1
4:3:1
1:-1
0:4:1
-1:-1
1:5:1
-1:-1
4:4:1
1:-1
1:2:1
-1:-1
1:4:1
-1:-1
0:3:1
-1:-1
0:4:1
-1:-1
1:5:1
-1:-1
1:5:1
-1:-1
1:4:1
-1:-1
4:2:1
1:-1
1:14:1
-1:1
0:11:1
-1:1
4:3:1
1:-1
1:2:1
-1:-1
5:4:1
1:-1
0:2:1
-1:-1
1:4:1
-1:-1
0:4:1
-1:-1
5:3:1
1:-1
1:3:1
-1:-1
1:4:1
-1:-1
0:3:1
-1:-1
2:17:1
0:-1
2:12:1
0:1
1:3:2
-1:0
2:5:1
0:-1
0:6:1
-1:-1
1:5:1
-1:-1
4:3:1
1:-1
1:2:1
-1:-1
1:3:1
-1:-1
4:3:1
1:-1
2:2:1
0:1
4:9:2
1:1
1:4:3
-1:0
2:18:2
0:-1
3:4:2
0:-1
4:2:2
1:0
0:6:3
-1:0
1:4:2
-1:-1
1:5:1
-1:-1
4:2:1
1:-1
1:3:1
-1:-1
1:4:1
-1:-1
0:3:1
-1:-1
1:4:1
-1:-1
0:10:1
-1:-1
2:4:1
0:-1
2:6:1
0:1
0:1:2
-1:-1
1:4:1
-1:-1
0:3:1
-1:-1
4:6:1
1:-1
4:5:1
1:-1
0:1:1
-1:-1
1:3:1
-1:1
1:4:1
-1:-1
0:3:1
-1:-1
0:4:1
-1:-1
1:5:1
-1:-1
4:4:1
1:-1
1:2:1
-1:-1
1:7:1
-1:-1
0:4:1
-1:-1
2:4:1
0:-1
0:5:1
-1:-1
3:3:1
0:-1
3:1:1
0:-1
1:2:1
-1:-1
1:4:1
-1:-1
0:3:1
-1:-1
1:4:1
-1:-1
1:5:1
-1:-1
4:3:1
1:-1
1:2:1
-1:-1
1:4:1
-1:-1
0:3:1
-1:-1
1:8:1
-1:1
0:5:1
-1:-1
3:4:1
0:-1
1:3:1
-1:-1
1:4:1
-1:-1
4:5:1
1:1
3:7:2
0:-1
3:6:2
0:1
2:15:3
0:-1
1:4:3
-1:-1
1:3:2
-1:-1
1:4:1
-1:-1
1:4:1
-1:-1
0:4:1
-1:-1
1:3:1
-1:-1
1:4:1
-1:-1
0:3:1
-1:-1
0:3:1
-1:-1
2:15:1
0:1
1:2:2
-1:-1
3:2:1
0:-1
0:2:1
-1:-1
1:4:1
-1:-1
2:3:1
0:-1
4:5:1
1:-1
4:5:1
1:-1
1:4:1
-1:-1
2:4:1
0:-1
1:5:1
-1:1
4:10:1
1:-1
1:3:1
-1:1
2:6:1
0:1
3:7:2
0:1
3:3:3
0:-1
1:3:3
-1:-1
1:4:2
-1:-1
0:4:1
-1:-1
4:4:1
1:-1
3:5:1
0:1
0:7:2
-1:1
1:5:2
-1:0
3:3:1
0:-1
0:2:1
-1:-1
4:7:1
1:-1
0:4:1
-1:1
1:3:1
-1:-1
1:5:1
-1:-1
4:2:1
1:-1
3:2:1
0:1
0:1:2
-1:-1
1:5:1
-1:-1
0:6:1
-1:-1
1:3:1
-1:-1
3:2:1
0:-1
3:3:1
0:1
0:2:2
-1:-1
0:3:1
-1:-1
1:4:1
-1:-1
4:2:1
1:-1
0:1:1
-1:-1
4:5:1
1:1
4:4:2
1:0
0:1:3
-1:-1
0:4:2
-1:0
1:5:1
-1:-1
3:3:1
0:-1
4:2:1
1:-1
1:3:1
-1:-1
1:4:1
-1:-1
4:3:1
1:-1
0:2:1
-1:-1
4:6:1
1:-1
0:2:1
-1:-1
1:4:1
-1:-1
1:4:1
-1:-1
5:2:1
1:-1
1:4:1
-1:-1
0:4:1
-1:-1
4:3:1
1:-1
4:3:1
1:1
1:2:2
-1:-1
1:4:1
-1:-1
4:3:1
1:-1
0:2:1
-1:-1
1:5:1
-1:-1
0:3:1
-1:-1
1:5:1
-1:-1
1:4:1
-1:-1
4:3:1
1:-1
1:4:1
-1:-1
1:4:1
-1:-1
0:3:1
-1:-1
1:4:1
-1:-1
1:4:1
-1:-1
4:2:1
1:-1
0:3:1
-1:1
1:5:1
-1:-1
4:3:1
1:-1
1:4:1
-1:-1
1:4:1
-1:-1
3:4:1
0:-1
4:1:1
1:1
0:2:2
-1:-1
1:5:1
-1:-1
0:4:1
-1:-1
1:4:1
-1:-1
1:4:1
-1:-1
4:2:1
1:-1
4:1:1
1:-1
0:2:1
-1:-1
1:5:1
-1:-1
4:3:1
1:-1
1:4:1
-1:-1
1:4:1
-1:-1
5:3:1
1:-1
0:2:1
-1:-1
1:5:1
-1:-1
0:3:1
-1:-1
1:4:1
-1:-1
0:4:1
-1:-1
4:3:1
1:-1
4:2:1
1:1
0:1:2
-1:-1
1:5:1
-1:-1
0:3:1
-1:-1
1:4:1
-1:-1
1:4:1
-1:-1
5:3:1
1:-1
1:4:1
-1:-1
1:4:1
-1:-1
3:4:1
0:1
0:2:2
-1:-1
1:2:1
-1:-1
3:5:1
0:-1
3:2:1
0:-1
0:3:1
-1:-1
4:5:1
1:-1
0:2:1
-1:-1
1:4:1
-1:-1
2:4:1
0:1
4:3:2
1:-1
4:1:2
1:-1
0:2:2
-1:-1
1:4:1
-1:-1
0:3:1
-1:-1
0:3:1
-1:-1
1:5:1
-1:-1
5:3:1
1:-1
1:3:1
-1:-1
1:5:1
-1:-1
4:2:1
1:-1
4:3:1
1:1
1:2:2
-1:-1
1:4:1
-1:-1
4:3:1
1:-1
0:2:1
-1:-1
1:6:1
-1:-1
0:3:1
-1:-1
1:4:1
-1:-1
1:4:1
-1:-1
5:3:1
1:-1
1:3:1
-1:-1
1:4:1
-1:-1
0:3:1
-1:-1
1:4:1
-1:-1
1:4:1
-1:-1
4:2:1
1:-1
0:3:1
-1:1
0:5:1
-1:-1
2:16:1
0:1
2:3:2
0:-1
3:3:2
0:-1
3:2:2
0:-1
1:2:2
-1:-1
1:4:1
-1:-1
4:5:1
1:-1
4:4:1
1:1
0:5:2
-1:0
2:12:1
0:1
2:2:2
0:-1
2:4:2
0:-1
2:2:2
0:-1
4:2:2
1:-1
1:4:2
-1:-1
1:4:1
-1:-1
0:2:1
-1:-1
1:3:1
-1:1
1:4:1
-1:-1
0:3:1
-1:-1
1:5:1
-1:-1
1:6:1
-1:-1
4:3:1
1:-1
1:2:1
-1:-1
1:4:1
-1:-1
4:2:1
1:-1
0:3:1
-1:1
3:8:1
0:-1
4:2:1
1:1
0:26:2
-1:-1
1:4:1
-1:1
2:5:1
0:1
2:2:2
0:-1
1:4:2
-1:-1
1:4:1
-1:-1
3:4:1
0:-1
4:1:1
1:1
1:3:2
-1:-1
4:3:1
1:-1
4:3:1
1:1
1:4:2
-1:-1
0:6:1
-1:-1
0:5:1
-1:1
1:3:1
-1:-1
2:4:1
0:-1
0:3:1
-1:-1
0:4:1
-1:-1
1:5:1
-1:-1
4:2:1
1:-1
4:2:1
1:1
1:2:2
-1:-1
1:3:1
-1:-1
0:4:1
-1:-1
1:5:1
-1:-1
1:4:1
-1:-1
0:4:1
-1:-1
1:3:1
-1:-1
1:5:1
-1:-1
3:3:1
0:-1
0:1:1
-1:-1
3:14:1
0:-1
2:6:1
0:-1
2:13:1
0:1
2:4:2
0:-1
0:4:2
-1:-1
1:5:1
-1:1
3:2:1
0:-1
4:2:1
1:-1
1:2:1
-1:-1
4:5:1
1:-1
2:16:1
0:-1
3:13:1
0:1
0:9:2
-1:1
2:3:2
0:0
1:4:2
-1:-1
0:3:1
-1:-1
0:4:1
-1:-1
1:5:1
-1:-1
4:2:1
1:-1
4:2:1
1:1
1:1:2
-1:-1
1:4:1
-1:-1
0:3:1
-1:-1
0:4:1
-1:-1
1:6:1
-1:-1
0:2:1
-1:-1
1:4:1
-1:-1
1:5:1
-1:-1
3:5:1
0:-1
2:5:1
0:1
0:7:2
-1:1
4:2:2
1:-1
4:2:2
1:-1
4:5:2
1:0
0:2:3
-1:-1
1:4:2
-1:-1
3:6:1
0:1
3:4:2
0:0
0:3:2
-1:-1
1:7:1
-1:-1
0:4:1
-1:-1
1:6:1
-1:-1
3:4:1
0:-1
0:3:1
-1:-1
1:4:1
-1:1
0:5:1
-1:-1
0:3:1
-1:-1
1:4:1
-1:-1
1:4:1
-1:-1
4:2:1
1:-1
4:2:1
1:-1
1:3:1
-1:-1
4:5:1
1:-1
4:2:1
1:1
1:4:2
-1:-1
1:4:1
-1:-1
0:4:1
-1:-1
1:5:1
-1:1
1:5:1
-1:1
0:3:1
-1:-1
4:4:1
1:-1
4:4:1
1:1
4:3:2
1:0
0:2:3
-1:-1
1:4:2
-1:-1
0:6:1
-1:1
1:5:1
-1:-1
3:4:1
0:-1
4:3:1
1:-1
1:2:1
-1:-1
4:4:1
1:-1
0:2:1
-1:-1
1:4:1
-1:-1
5:4:1
1:-1
4:3:1
1:1
1:2:2
-1:-1
0:4:1
-1:-1
4:2:1
1:-1
0:3:1
-1:-1
1:2:1
-1:-1
4:5:1
1:-1
3:3:1
0:-1
1:3:1
-1:-1
1:4:1
-1:-1
4:2:1
1:-1
0:1:1
-1:-1
1:4:1
-1:-1
1:4:1
-1:-1
4:4:1
1:-1
1:2:1
-1:-1
1:4:1
-1:-1
4:2:1
1:-1
5:2:1
1:1
1:2:2
-1:-1
1:5:1
-1:-1
3:4:1
0:-1
1:2:1
-1:-1
1:4:1
-1:-1
0:3:1
-1:-1
1:4:1
-1:-1
1:4:1
-1:-1
4:4:1
1:-1
1:2:1
-1:-1
1:4:1
-1:-1
4:2:1
1:-1
4:3:1
1:1
1:2:2
-1:-1
1:4:1
-1:-1
4:4:1
1:-1
1:2:1
-1:-1
1:4:1
-1:-1
0:3:1
-1:-1
1:4:1
-1:-1
1:4:1
-1:-1
1:6:1
-1:-1
1:4:1
-1:-1
4:6:1
1:1
1:9:2
-1:1
3:13:2
0:0
3:2:2
0:0
1:3:2
-1:-1
1:5:1
-1:-1
0:3:1
-1:-1
1:4:1
-1:-1
1:4:1
-1:-1
4:3:1
1:-1
1:3:1
-1:-1
1:5:1
-1:-1
4:3:1
1:-1
0:1:1
-1:-1
3:18:1
0:1
2:7:2
0:0
1:3:2
-1:0
4:4:1
1:-1
0:3:1
-1:-1
1:5:1
-1:-1
1:5:1
-1:-1
2:3:1
0:-1
1:3:1
-1:1
1:3:1
-1:-1
0:5:1
-1:-1
1:7:1
-1:-1
4:3:1
1:-1
4:2:1
1:-1
1:6:1
-1:-1
3:5:1
0:-1
2:19:1
0:1
1:5:2
-1:0
1:3:1
-1:1
3:4:1
0:-1
4:5:1
1:1
1:2:2
-1:-1
3:7:1
0:-1
0:1:1
-1:-1
1:5:1
-1:-1
4:4:1
1:-1
0:2:1
-1:-1
1:4:1
-1:-1
3:9:1
0:-1
2:4:1
0:-1
1:2:1
-1:-1
0:4:1
-1:-1
0:5:1
-1:-1
1:5:1
-1:-1
0:4:1
-1:-1
3:2:1
0:-1
0:1:1
-1:-1
1:3:1
-1:1
1:4:1
-1:-1
4:3:1
1:-1
1:4:1
-1:-1
1:4:1
-1:-1
4:4:1
1:-1
1:2:1
-1:-1
1:4:1
-1:-1
0:3:1
-1:-1
1:4:1
-1:-1
1:4:1
-1:-1
3:5:1
0:-1
3:1:1
0:-1
1:4:1
-1:-1
3:4:1
0:-1
0:3:1
-1:-1
1:4:1
-1:-1
1:4:1
-1:-1
4:3:1
1:-1
1:3:1
-1:-1
0:4:1
-1:-1
3:3:1
0:-1
2:4:1
0:1
0:3:2
-1:-1
0:7:1
-1:1
0:4:1
-1:-1
2:3:1
0:-1
1:1:1
-1:-1
3:5:1
0:-1
0:2:1
-1:-1
4:4:1
1:-1
4:9:1
1:1
4:3:2
1:0
4:12:3
1:0
1:2:4
-1:-1
0:4:3
-1:-1
3:2:2
0:-1
1:1:2
-1:-1
1:4:1
-1:-1
1:4:1
-1:-1
5:3:1
1:-1
1:2:1
-1:-1
1:5:1
-1:-1
0:4:1
-1:-1
2:20:1
0:1
2:5:2
0:-1
0:9:2
-1:1
1:3:2
-1:-1
3:6:1
0:-1
0:12:1
-1:-1
3:4:1
0:-1
1:4:1
-1:-1
0:3:1
-1:-1
0:3:1
-1:1
1:5:1
-1:-1
0:4:1
-1:-1
3:4:1
0:-1
5:15:1
1:1
0:7:2
-1:1
1:2:2
-1:-1
3:8:1
0:-1
1:3:1
-1:-1
2:7:1
0:-1
2:11:1
0:-1
1:4:1
-1:-1
1:4:1
-1:-1
2:3:1
0:-1
0:1:1
-1:-1
1:5:1
-1:-1
1:4:1
-1:-1
4:4:1
1:-1
4:4:1
1:1
0:4:2
-1:0
0:5:1
-1:-1
1:5:1
-1:1
3:2:1
0:-1
3:1:1
0:-1
0:3:1
-1:-1
1:5:1
-1:-1
5:3:1
1:-1
1:3:1
-1:-1
1:4:1
-1:-1
4:2:1
1:-1
5:1:1
1:1
0:2:2
-1:-1
1:5:1
-1:-1
5:3:1
1:-1
1:3:1
-1:-1
1:4:1
-1:-1
4:4:1
1:-1
4:1:1
1:1
0:2:2
-1:-1
1:5:1
-1:-1
0:3:1
-1:-1
1:5:1
-1:1
1:4:1
-1:-1
0:2:1
-1:-1
0:3:1
-1:1
1:5:1
-1:-1
0:3:1
-1:-1
1:4:1
-1:-1
1:4:1
-1:-1
4:2:1
1:-1
4:2:1
1:1
0:1:2
-1:-1
1:5:1
-1:-1
0:3:1
-1:-1
1:5:1
-1:-1
1:4:1
-1:-1
4:3:1
1:-1
0:3:1
-1:-1
1:5:1
-1:-1
0:3:1
-1:-1
0:4:1
-1:-1
3:4:1
0:-1
3:2:1
0:-1
4:2:1
1:1
0:2:2
-1:-1
1:6:1
-1:-1
4:2:1
1:-1
4:2:1
1:-1
1:2:1
-1:-1
1:4:1
-1:-1
0:3:1
-1:-1
0:3:1
-1:-1
1:6:1
-1:-1
0:3:1
-1:-1
1:4:1
-1:-1
1:4:1
-1:-1
5:3:1
1:-1
0:2:1
-1:-1
1:5:1
-1:-1
4:2:1
1:-1
4:2:1
1:-1
1:3:1
-1:-1
1:4:1
-1:-1
4:3:1
1:-1
0:2:1
-1:-1
1:5:1
-1:-1
0:3:1
-1:-1
1:4:1
-1:-1
1:4:1
-1:-1
5:3:1
1:-1
0:2:1
-1:-1
1:5:1
-1:-1
4:2:1
1:-1
4:3:1
1:1
1:2:2
-1:-1
1:4:1
-1:-1
4:3:1
1:-1
0:2:1
-1:-1
1:5:1
-1:-1
0:3:1
-1:-1
1:4:1
-1:-1
1:4:1
-1:-1
4:2:1
1:-1
4:1:1
1:1
0:2:2
-1:-1
1:5:1
-1:-1
0:3:1
-1:-1
1:4:1
-1:-1
1:4:1
-1:-1
4:2:1
1:-1
0:1:1
-1:-1
0:4:1
-1:1
1:6:1
-1:-1
4:3:1
1:-1
1:3:1
-1:-1
1:4:1
-1:-1
0:3:1
-1:-1
0:3:1
-1:-1
1:5:1
-1:-1
0:3:1
-1:-1
1:4:1
-1:-1
1:4:1
-1:-1
4:2:1
1:-1
4:2:1
1:1
0:1:2
-1:-1
1:5:1
-1:-1
0:3:1
-1:-1
1:3:1
-1:-1
1:5:1
-1:-1
5:3:1
1:-1
0:2:1
-1:-1
1:5:1
-1:-1
0:3:1
-1:-1
1:4:1
-1:-1
1:4:1
-1:-1
4:3:1
1:-1
0:2:1
-1:-1
1:6:1
-1:-1
4:2:1
1:-1
4:2:1
1:-1
1:3:1
-1:-1
1:4:1
-1:-1
4:3:1
1:-1
0:2:1
-1:-1
1:5:1
-1:-1
0:3:1
-1:-1
1:6:1
-1:-1
1:4:1
-1:-1
4:3:1
1:-1
0:2:1
-1:-1
4:5:1
1:-1
3:13:1
0:1
3:2:2
0:-1
2:7:2
0:0
2:16:2
0:0
2:4:2
0:-1
0:4:2
-1:-1
4:4:1
1:-1
1:2:1
-1:-1
1:4:1
-1:-1
4:2:1
1:-1
4:2:1
1:1
4:4:2
1:0
4:4:3
1:0
1:6:4
-1:-1
2:10:3
0:0
2:4:3
0:-1
2:2:3
0:-1
4:2:3
1:-1
1:3:3
-1:-1
1:4:2
-1:-1
0:3:1
-1:-1
1:3:1
-1:1
1:5:1
-1:-1
0:3:1
-1:-1
3:6:1
0:-1
0:5:1
-1:-1
4:3:1
1:-1
4:2:1
1:-1
4:4:1
1:1
5:2:2
1:-1
4:7:2
1:0
3:5:3
0:0
0:27:3
-1:-1
0:4:2
-1:-1
0:4:1
-1:-1
2:10:1
0:-1
0:8:1
-1:-1
2:4:1
0:-1
1:2:1
-1:-1
4:3:1
1:-1
0:4:1
-1:-1
1:4:1
-1:-1
0:4:1
-1:-1
5:4:1
1:1
1:2:2
-1:-1
2:4:1
0:-1
4:4:1
1:-1
4:3:1
1:1
1:2:2
-1:-1
1:4:1
-1:-1
4:3:1
1:-1
1:2:1
-1:-1
1:3:1
-1:-1
0:5:1
-1:-1
1:5:1
-1:-1
1:4:1
-1:-1
3:3:1
0:-1
3:3:1
0:1
1:2:2
-1:-1
1:4:1
-1:-1
0:4:1
-1:-1
1:4:1
-1:-1
4:5:1
1:-1
1:4:1
-1:1
1:4:1
-1:-1
0:3:1
-1:-1
3:8:1
0:-1
2:16:1
0:-1
2:17:1
0:1
3:5:2
0:0
1:3:2
-1:-1
0:4:1
-1:-1
1:7:1
-1:1
3:4:1
0:-1
2:2:1
0:-1
1:4:1
-1:-1
4:2:1
1:-1
0:8:1
-1:-1
1:5:1
-1:-1
5:12:1
1:1
4:5:2
1:0
1:13:3
-1:0
0:2:2
-1:-1
1:3:1
-1:1
1:4:1
-1:-1
3:4:1
0:-1
0:1:1
-1:-1
0:7:1
-1:-1
0:4:1
-1:-1
3:3:1
0:-1
0:4:1
-1:-1
1:6:1
-1:1
3:2:1
0:-1
3:2:1
0:-1
1:4:1
-1:-1
1:5:1
-1:-1
0:4:1
-1:-1
1:3:1
-1:1
1:4:1
-1:-1
2:3:1
0:-1
1:10:1
-1:-1
3:4:1
0:-1
3:1:1
0:1
1:3:2
-1:-1
1:4:1
-1:-1
0:3:1
-1:-1
1:4:1
-1:-1
0:4:1
-1:-1
3:5:1
0:-1
3:3:1
0:-1
1:2:1
-1:-1
1:4:1
-1:-1
0:3:1
-1:-1
1:6:1
-1:-1
1:5:1
-1:-1
0:4:1
-1:-1
1:4:1
-1:-1
1:4:1
-1:-1
0:5:1
-1:-1
1:4:1
-1:-1
1:5:1
-1:-1
3:2:1
0:-1
3:1:1
0:-1
1:4:1
-1:-1
1:5:1
-1:-1
4:3:1
1:-1
1:3:1
-1:-1
1:5:1
-1:-1
4:4:1
1:-1
1:2:1
-1:-1
1:4:1
-1:-1
0:3:1
-1:-1
1:3:1
-1:-1
1:5:1
-1:-1
4:3:1
1:-1
1:2:1
-1:-1
1:4:1
-1:-1
4:2:1
1:-1
0:4:1
-1:1
1:3:1
-1:-1
3:5:1
0:-1
4:2:1
1:-1
1:3:1
-1:1
1:4:1
-1:-1
4:2:1
1:-1
0:2:1
-1:-1
1:4:1
-1:-1
1:4:1
-1:-1
4:3:1
1:-1
1:2:1
-1:-1
1:4:1
-1:-1
4:2:1
1:-1
4:2:1
1:-1
1:2:1
-1:-1
1:5:1
-1:-1
4:3:1
1:-1
1:2:1
-1:-1
1:5:1
-1:-1
0:3:1
-1:-1
1:4:1
-1:-1
0:4:1
-1:-1
3:4:1
0:-1
3:2:1
0:1
1:1:2
-1:-1
1:4:1
-1:-1
4:2:1
1:-1
4:2:1
1:1
1:2:2
-1:-1
0:5:1
-1:-1
3:4:1
0:-1
1:2:1
-1:-1
1:4:1
-1:-1
0:3:1
-1:-1
1:4:1
-1:-1
0:4:1
-1:-1
4:3:1
1:-1
4:1:1
1:1
1:2:2
-1:-1
1:4:1
-1:-1
0:3:1
-1:-1
0:4:1
-1:-1
1:6:1
-1:-1
3:3:1
0:-1
3:1:1
0:-1
1:2:1
-1:-1
1:4:1
-1:-1
4:3:1
1:-1
1:4:1
-1:-1
1:5:1
-1:-1
1:5:1
-1:-1
1:5:1
-1:-1
0:3:1
-1:-1
1:12:1
-1:-1
4:13:1
1:1
4:3:2
1:0
1:2:3
-1:-1
1:4:2
-1:-1
1:3:1
-1:-1
1:4:1
-1:-1
1:4:1
-1:-1
4:3:1
1:-1
1:3:1
-1:-1
1:4:1
-1:-1
0:3:1
-1:-1
0:4:1
-1:-1
3:16:1
0:1
4:9:2
1:1
0:11:3
-1:0
1:7:2
-1:0
2:3:1
0:-1
2:3:1
0:-1
1:5:1
-1:-1
4:4:1
1:-1
4:11:1
1:1
0:12:2
-1:1
0:13:2
-1:0
1:4:1
-1:-1
0:5:1
-1:-1
1:5:1
-1:-1
0:8:1
-1:-1
2:4:1
0:-1
0:6:1
-1:1
0:7:1
-1:1
1:7:1
-1:1
1:5:1
-1:-1
1:4:1
-1:-1
4:2:1
1:-1
4:4:1
1:-1
1:5:1
-1:-1
2:7:1
0:-1
3:3:1
0:1
1:2:2
-1:-1
3:5:1
0:-1
0:3:1
-1:-1
0:4:1
-1:-1
1:5:1
-1:-1
4:4:1
1:-1
1:2:1
-1:-1
4:4:1
1:-1
3:10:1
0:1
4:3:2
1:0
4:1:3
1:-1
1:3:3
-1:-1
1:4:2
-1:-1
0:5:1
-1:-1
1:6:1
-1:-1
1:4:1
-1:-1
0:3:1
-1:-1
0:3:1
-1:-1
2:20:1
0:1
2:10:2
0:0
2:3:2
0:-1
0:2:2
-1:-1
1:4:1
-1:-1
4:2:1
1:-1
4:3:1
1:-1
1:3:1
-1:-1
1:4:1
-1:-1
4:3:1
1:-1
5:2:1
1:-1
5:7:1
1:1
3:10:2
0:1
4:2:3
1:0
1:2:4
-1:-1
0:10:3
-1:-1
0:3:2
-1:-1
0:5:1
-1:-1
3:4:1
0:-1
3:2:1
0:-1
0:1:1
-1:-1
4:4:1
1:-1
1:4:1
-1:-1
3:2:1
0:-1
4:2:1
1:-1
1:4:1
-1:-1
1:4:1
-1:-1
4:4:1
1:-1
1:3:1
-1:-1
1:4:1
-1:-1
0:4:1
-1:-1
3:5:1
0:-1
4:4:1
1:-1
1:7:1
-1:1
0:4:1
-1:-1
1:6:1
-1:-1
1:4:1
-1:-1
2:4:1
0:-1
3:1:1
0:-1
1:2:1
-1:-1
1:4:1
-1:-1
0:3:1
-1:-1
0:4:1
-1:-1
3:4:1
0:-1
4:2:1
1:-1
4:2:1
1:-1
1:2:1
-1:-1
1:4:1
-1:-1
0:3:1
-1:-1
0:5:1
-1:-1
1:6:1
-1:-1
3:2:1
0:-1
3:2:1
0:1
1:1:2
-1:-1
1:4:1
-1:-1
0:3:1
-1:-1
0:4:1
-1:-1
1:3:1
-1:-1
4:4:1
1:-1
4:1:1
1:1
1:3:2
-1:-1
1:5:1
-1:-1
0:4:1
-1:-1
0:4:1
-1:-1
1:5:1
-1:-1
4:3:1
1:-1
1:2:1
-1:-1
1:4:1
-1:-1
4:2:1
1:-1
4:3:1
1:-1
1:4:1
-1:-1
1:6:1
-1:-1
4:2:1
1:-1
1:1:1
-1:-1
1:4:1
-1:-1
0:4:1
-1:-1
0:4:1
-1:-1
3:2:1
0:-1
3:4:1
0:1
4:2:2
1:-1
1:2:2
-1:-1
1:4:1
-1:-1
4:2:1
1:-1
4:3:1
1:-1
1:3:1
-1:-1
1:4:1
-1:-1
4:3:1
1:-1
1:2:1
-1:-1
1:4:1
-1:-1
0:3:1
-1:-1
0:3:1
-1:-1
4:2:1
1:-1
3:5:1
0:1
3:2:2
0:-1
1:2:2
-1:-1
1:4:1
-1:-1
0:3:1
-1:-1
4:4:1
1:-1
1:2:1
-1:-1
1:4:1
-1:-1
3:4:1
0:-1
4:3:1
1:1
4:4:2
1:0
0:2:3
-1:-1
0:3:2
-1:-1
1:5:1
-1:-1
4:2:1
1:-1
5:1:1
1:1
0:2:2
-1:-1
1:4:1
-1:-1
0:3:1
-1:-1
0:4:1
-1:-1
4:2:1
1:-1
3:4:1
0:1
4:2:2
1:0
1:2:3
-1:-1
1:4:2
-1:-1
0:3:1
-1:-1
5:4:1
1:-1
4:6:1
1:-1
4:2:1
1:-1
1:2:1
-1:-1
1:4:1
-1:-1
0:3:1
-1:-1
1:5:1
-1:-1
0:6:1
-1:-1
3:13:1
0:1
1:10:2
-1:1
4:1:2
1:-1
0:2:2
-1:0
2:4:1
0:1
0:5:2
-1:0
0:3:1
-1:-1
1:4:1
-1:-1
3:7:1
0:-1
0:4:1
-1:1
0:25:1
-1:1
1:5:1
-1:-1
1:3:1
-1:-1
1:5:1
-1:-1
1:5:1
-1:-1
3:2:1
0:-1
3:4:1
0:1
0:5:2
-1:-1
3:3:1
0:-1
0:4:1
-1:-1
1:5:1
-1:-1
0:5:1
-1:-1
4:4:1
1:1
1:3:2
-1:-1
2:4:1
0:-1
4:2:1
1:-1
0:2:1
-1:-1
1:5:1
-1:-1
1:5:1
-1:-1
3:3:1
0:-1
1:2:1
-1:-1
1:3:1
-1:-1
4:3:1
1:-1
2:2:1
0:-1
1:5:1
-1:-1
4:5:1
1:-1
4:2:1
1:1
1:2:2
-1:-1
1:4:1
-1:-1
0:3:1
-1:-1
3:7:1
0:-1
3:4:1
0:1
1:4:2
-1:0
1:4:1
-1:-1
0:3:1
-1:-1
3:13:1
0:-1
3:12:1
0:1
2:2:2
0:-1
0:5:2
-1:-1
1:6:1
-1:1
3:5:1
0:-1
2:3:1
0:-1
1:4:1
-1:-1
1:17:1
-1:1
2:11:1
0:1
0:3:2
-1:-1
0:3:1
-1:1
1:4:1
-1:-1
0:3:1
-1:-1
1:4:1
-1:-1
1:4:1
-1:-1
4:3:1
1:-1
4:1:1
1:-1
1:4:1
-1:-1
1:4:1
-1:-1
2:3:1
0:1
0:4:2
-1:-1
3:3:1
0:-1
0:4:1
-1:-1
0:2:1
-1:-1
2:9:1
0:1
3:8:2
0:1
4:1:3
1:0
2:3:4
0:-1
1:5:4
-1:-1
3:2:3
0:-1
4:4:3
1:0
1:2:4
-1:-1
1:4:3
-1:-1
4:3:2
1:-1
1:4:2
-1:-1
1:4:1
-1:-1
0:3:1
-1:-1
0:4:1
-1:-1
3:2:1
0:-1
3:4:1
0:1
0:2:2
-1:-1
1:3:1
-1:-1
1:4:1
-1:-1
0:3:1
-1:-1
0:4:1
-1:-1
4:2:1
1:-1
3:4:1
0:1
0:2:2
-1:-1
1:3:1
-1:-1
1:4:1
-1:-1
1:5:1
-1:-1
1:5:1
-1:-1
1:4:1
-1:-1
0:3:1
-1:-1
1:4:1
-1:1
1:4:1
-1:-1
0:4:1
-1:-1
0:4:1
-1:-1
1:3:1
-1:-1
3:3:1
0:-1
4:2:1
1:1
1:2:2
-1:-1
1:4:1
-1:-1
0:3:1
-1:-1
0:4:1
-1:-1
3:4:1
0:-1
4:2:1
1:-1
4:2:1
1:-1
1:2:1
-1:-1
1:5:1
-1:-1
0:3:1
-1:-1
0:5:1
-1:-1
1:5:1
-1:-1
4:3:1
1:-1
1:2:1
-1:-1
1:4:1
-1:-1
4:2:1
1:-1
1:5:1
-1:-1
3:5:1
0:1
2:6:2
0:0
3:4:2
0:-1
1:3:2
-1:-1
3:4:1
0:-1
0:2:1
-1:-1
0:4:1
-1:-1
1:3:1
-1:-1
4:2:1
1:-1
5:2:1
1:-1
1:2:1
-1:-1
0:4:1
-1:-1
4:2:1
1:-1
5:3:1
1:1
1:2:2
-1:-1
1:5:1
-1:-1
3:3:1
0:-1
1:2:1
-1:-1
1:4:1
-1:-1
0:3:1
-1:-1
0:4:1
-1:-1
4:2:1
1:-1
3:4:1
0:1
4:2:2
1:-1
1:2:2
-1:-1
1:4:1
-1:-1
4:2:1
1:-1
4:4:1
1:1
0:2:2
-1:-1
1:5:1
-1:-1
4:3:1
1:-1
1:2:1
-1:-1
1:4:1
-1:-1
0:3:1
-1:-1
0:4:1
-1:-1
4:2:1
1:-1
4:4:1
1:-1
1:4:1
-1:1
1:5:1
-1:-1
0:3:1
-1:-1
0:12:1
-1:-1
4:9:1
1:-1
4:7:1
1:1
1:3:2
-1:-1
1:4:1
-1:-1
1:3:1
-1:-1
1:3:1
-1:-1
1:5:1
-1:-1
5:3:1
1:-1
1:2:1
-1:-1
1:4:1
-1:-1
4:2:1
1:-1
0:1:1
-1:-1
0:5:1
-1:-1
0:17:1
-1:1
3:7:1
0:-1
1:2:1
-1:-1
4:4:1
1:-1
3:10:1
0:1
4:2:2
1:-1
4:3:2
1:0
4:1:3
1:0
0:5:4
-1:-1
5:3:3
1:0
4:10:4
1:0
1:3:5
-1:-1
2:19:4
0:-1
3:4:4
0:-1
0:2:4
-1:-1
1:4:3
-1:-1
0:3:2
-1:-1
1:3:1
-1:1
1:4:1
-1:-1
3:2:1
0:-1
4:4:1
1:1
0:2:2
-1:-1
0:10:1
-1:1
0:8:1
-1:-1
0:5:1
-1:-1
0:4:1
-1:-1
3:5:1
0:-1
4:7:1
1:1
1:4:2
-1:0
1:7:1
-1:1
0:5:1
-1:-1
3:4:1
0:-1
3:4:1
0:1
4:2:2
1:0
1:2:3
-1:-1
4:7:2
1:-1
0:5:2
-1:1
0:5:2
-1:-1
3:4:1
0:-1
4:1:1
1:1
1:2:2
-1:-1
4:7:1
1:-1
1:6:1
-1:1
0:4:1
-1:-1
4:3:1
1:-1
1:2:1
-1:-1
1:4:1
-1:-1
4:4:1
1:-1
3:5:1
0:1
1:2:2
-1:-1
1:4:1
-1:-1
3:3:1
0:-1
1:2:1
-1:-1
1:8:1
-1:-1
2:19:1
0:1
0:11:2
-1:-1
2:23:1
0:1
1:2:2
-1:-1
2:1:1
0:1
0:3:2
-1:-1
1:4:1
-1:-1
0:3:1
-1:-1
1:5:1
-1:-1
1:5:1
-1:-1
3:2:1
0:-1
3:3:1
0:-1
3:6:1
0:1
3:14:2
0:1
5:1:3
1:-1
0:2:3
-1:-1
1:5:2
-1:-1
0:3:1
-1:-1
0:5:1
-1:-1
3:2:1
0:-1
3:4:1
0:1
0:1:2
-1:-1
0:3:1
-1:1
1:5:1
-1:-1
0:3:1
-1:-1
4:3:1
1:-1
1:2:1
-1:-1
1:4:1
-1:-1
4:2:1
1:-1
0:3:1
-1:1
1:5:1
-1:-1
0:4:1
-1:-1
1:6:1
-1:-1
4:3:1
1:-1
2:10:1
0:1
0:2:2
-1:-1
1:5:1
-1:-1
3:5:1
0:-1
4:3:1
1:1
1:2:2
-1:-1
0:4:1
-1:-1
4:2:1
1:-1
3:5:1
0:-1
1:4:1
-1:-1
0:4:1
-1:-1
3:3:1
0:-1
4:2:1
1:1
4:4:2
1:0
0:2:3
-1:-1
5:4:2
1:-1
4:4:2
1:0
5:2:3
1:-1
0:2:3
-1:-1
1:4:2
-1:-1
4:3:1
1:-1
4:2:1
1:-1
1:3:1
-1:-1
1:4:1
-1:-1
4:3:1
1:-1
1:3:1
-1:-1
1:4:1
-1:-1
0:3:1
-1:-1
1:7:1
-1:-1
1:4:1
-1:1
2:4:1
0:1
3:1:2
0:0
4:2:2
1:-1
4:5:2
1:0
0:2:3
-1:-1
1:5:2
-1:-1
3:4:1
0:-1
4:4:1
1:1
4:3:2
1:0
4:3:3
1:0
0:2:4
-1:-1
1:5:3
-1:-1
4:4:2
1:-1
5:2:2
1:-1
1:3:2
-1:-1
0:4:1
-1:-1
0:3:1
-1:-1
1:5:1
-1:-1
1:4:1
-1:-1
4:2:1
1:-1
4:1:1
1:-1
1:2:1
-1:-1
1:4:1
-1:-1
5:3:1
1:-1
1:4:1
-1:-1
1:5:1
-1:-1
3:3:1
0:-1
1:2:1
-1:-1
1:4:1
-1:-1
5:5:1
1:-1
1:4:1
-1:-1
1:4:1
-1:-1
3:2:1
0:-1
4:2:1
1:1
0:1:2
-1:-1
1:5:1
-1:-1
0:3:1
-1:-1
1:3:1
-1:-1
1:5:1
-1:-1
5:3:1
1:-1
1:2:1
-1:-1
1:4:1
-1:-1
0:3:1
-1:-1
1:5:1
-1:-1
1:4:1
-1:-1
4:3:1
1:-1
1:2:1
-1:-1
1:4:1
-1:-1
4:3:1
1:-1
4:2:1
1:-1
1:4:1
-1:-1
1:4:1
-1:-1
4:3:1
1:-1
1:2:1
-1:-1
1:4:1
-1:-1
0:3:1
-1:-1
1:5:1
-1:-1
1:4:1
-1:-1
0:7:1
-1:-1
2:25:1
0:1
1:10:2
-1:1
4:1:2
1:-1
0:1:2
-1:-1
1:4:1
-1:1
1:4:1
-1:-1
0:3:1
-1:-1
1:4:1
-1:-1
0:9:1
-1:-1
2:4:1
0:-1
0:27:1
-1:-1
2:4:1
0:1
0:4:2
-1:-1
2:9:1
0:-1
0:3:1
-1:-1
0:3:1
-1:-1
3:3:1
0:-1
0:3:1
-1:-1
1:4:1
-1:-1
0:4:1
-1:-1
4:3:1
1:1
4:3:2
1:0
1:1:3
-1:-1
2:5:2
0:-1
4:4:2
1:-1
1:3:2
-1:-1
1:4:1
-1:-1
0:3:1
-1:-1
1:3:1
-1:-1
1:3:1
-1:-1
0:4:1
-1:-1
1:5:1
-1:-1
1:5:1
-1:-1
0:3:1
-1:-1
0:3:1
-1:-1
3:5:1
0:1
3:3:2
0:-1
0:2:2
-1:-1
1:4:1
-1:-1
1:4:1
-1:-1
4:3:1
1:-1
1:3:1
-1:-1
1:4:1
-1:-1
0:3:1
-1:-1
1:5:1
-1:-1
4:3:1
1:-1
0:9:1
-1:1
5:4:1
1:1
0:14:2
-1:1
3:13:2
0:-1
4:4:2
1:0
1:3:3
-1:-1
0:4:2
-1:-1
1:5:1
-1:1
3:4:1
0:-1
2:2:1
0:-1
1:4:1
-1:-1
0:3:1
-1:-1
1:4:1
-1:-1
5:7:1
1:-1
1:6:1
-1:-1
1:7:1
-1:1
4:8:1
1:1
5:2:2
1:0
4:5:3
1:-1
1:7:3
-1:0
3:6:2
0:-1
0:1:2
-1:-1
0:4:1
-1:-1
1:5:1
-1:-1
0:3:1
-1:-1
0:4:1
-1:-1
1:4:1
-1:-1
3:3:1
0:-1
0:2:1
-1:-1
0:3:1
-1:-1
1:6:1
-1:-1
0:3:1
-1:-1
1:4:1
-1:-1
1:6:1
-1:-1
4:1:1
1:-1
0:5:1
-1:-1
0:5:1
-1:1
1:4:1
-1:-1
3:3:1
0:-1
4:10:1
1:1
4:2:2
1:0
1:2:3
-1:-1
1:6:2
-1:-1
3:3:1
0:-1
0:1:1
-1:-1
1:4:1
-1:-1
1:4:1
-1:-1
4:3:1
1:-1
1:3:1
-1:-1
1:5:1
-1:-1
4:2:1
1:-1
4:2:1
1:-1
1:3:1
-1:-1
1:4:1
-1:-1
0:4:1
-1:-1
1:3:1
-1:-1
1:5:1
-1:-1
1:3:1
-1:-1
1:5:1
-1:-1
1:4:1
-1:-1
4:4:1
1:-1
1:2:1
-1:-1
1:5:1
-1:-1
4:2:1
1:-1
4:2:1
1:-1
1:4:1
-1:-1
1:5:1
-1:-1
4:3:1
1:-1
1:3:1
-1:-1
1:5:1
-1:-1
0:3:1
-1:-1
1:4:1
-1:-1
1:4:1
-1:-1
5:3:1
1:-1
1:2:1
-1:-1
1:5:1
-1:-1
0:3:1
-1:-1
1:4:1
-1:-1
1:4:1
-1:-1
4:2:1
1:-1
1:3:1
-1:1
1:5:1
-1:-1
0:3:1
-1:-1
1:4:1
-1:-1
1:4:1
-1:-1
4:2:1
1:-1
4:1:1
1:1
1:2:2
-1:-1
1:5:1
-1:-1
0:3:1
-1:-1
1:3:1
-1:-1
1:5:1
-1:-1
2:2:1
0:-1
4:3:1
1:1
1:1:2
-1:-1
1:4:1
-1:-1
4:3:1
1:-1
1:4:1
-1:-1
1:4:1
-1:-1
4:3:1
1:-1
1:2:1
-1:-1
1:6:1
-1:-1
0:3:1
-1:-1
1:3:1
-1:-1
1:5:1
-1:-1
4:2:1
1:-1
4:2:1
1:1
1:1:2
-1:-1
1:5:1
-1:-1
0:3:1
-1:-1
1:4:1
-1:-1
1:4:1
-1:-1
4:3:1
1:-1
1:2:1
-1:-1
1:5:1
-1:-1
4:2:1
1:-1
0:1:1
-1:-1
1:4:1
-1:-1
1:4:1
-1:-1
4:3:1
1:-1
1:2:1
-1:-1
1:5:1
-1:-1
4:2:1
1:-1
4:2:1
1:-1
1:3:1
-1:-1
1:6:1
-1:-1
4:2:1
1:-1
1:1:1
-1:-1
1:5:1
-1:-1
0:3:1
-1:-1
1:4:1
-1:-1
4:4:1
1:-1
1:5:1
-1:1
1:4:1
-1:-1
4:5:1
1:-1
4:5:1
1:1
3:5:2
0:0
4:1:2
1:-1
1:2:2
-1:-1
1:4:1
-1:-1
5:3:1
1:-1
1:5:1
-1:-1
1:4:1
-1:-1
4:3:1
1:-1
1:2:1
-1:-1
1:4:1
-1:-1
0:3:1
-1:-1
0:4:1
-1:-1
0:6:1
-1:-1
1:11:1
-1:1
3:5:1
0:-1
2:6:1
0:1
1:3:2
-1:0
2:5:1
0:-1
5:6:1
1:-1
4:6:1
1:1
3:3:2
0:-1
1:2:2
-1:-1
1:3:1
-1:-1
4:3:1
1:-1
2:3:1
0:1
0:11:2
-1:1
0:15:2
-1:-1
0:7:1
-1:1
0:3:1
-1:1
1:4:1
-1:-1
3:2:1
0:-1
4:5:1
1:-1
0:3:1
-1:-1
0:8:1
-1:1
2:3:1
0:-1
2:4:1
0:-1
3:3:1
0:1
2:8:2
0:0
0:8:2
-1:0
2:6:1
0:1
3:2:2
0:-1
1:1:2
-1:-1
1:5:1
-1:-1
1:4:1
-1:-1
4:3:1
1:-1
1:2:1
-1:-1
1:4:1
-1:-1
4:2:1
1:-1
4:5:1
1:-1
1:4:1
-1:-1
3:4:1
0:-1
0:2:1
-1:-1
4:6:1
1:-1
3:13:1
0:1
4:2:2
1:-1
0:6:2
-1:-1
0:4:1
-1:-1
0:3:1
-1:-1
0:6:1
-1:1
3:6:1
0:-1
0:5:1
-1:1
0:15:1
-1:1
1:3:1
-1:-1
3:2:1
0:-1
0:2:1
-1:-1
1:4:1
-1:-1
0:3:1
-1:-1
1:4:1
-1:-1
1:4:1
-1:-1
4:4:1
1:-1
5:2:1
1:1
5:7:2
1:1
3:9:3
0:0
4:1:3
1:0
1:2:4
-1:-1
1:4:3
-1:-1
0:3:2
-1:-1
0:5:1
-1:-1
4:2:1
1:-1
3:4:1
0:1
4:1:2
1:0
1:3:3
-1:-1
1:4:2
-1:-1
0:4:1
-1:-1
0:4:1
-1:-1
1:5:1
-1:-1
4:4:1
1:-1
1:2:1
-1:-1
1:5:1
-1:-1
0:3:1
-1:-1
0:4:1
-1:-1
1:6:1
-1:-1
4:1:1
1:-1
1:5:1
-1:1
1:5:1
-1:-1
0:4:1
-1:-1
0:4:1
-1:-1
1:5:1
-1:-1
4:3:1
1:-1
1:3:1
-1:-1
1:4:1
-1:-1
4:2:1
1:-1
0:1:1
-1:-1
0:4:1
-1:-1
1:5:1
-1:-1
4:3:1
1:-1
1:2:1
-1:-1
1:4:1
-1:-1
4:3:1
1:-1
4:4:1
1:-1
0:3:1
-1:-1
1:4:1
-1:-1
3:3:1
0:-1
4:2:1
1:1
4:4:2
1:0
0:2:3
-1:-1
0:4:2
-1:-1
1:5:1
-1:-1
4:3:1
1:-1
1:2:1
-1:-1
1:4:1
-1:-1
4:2:1
1:-1
5:3:1
1:1
0:2:2
-1:-1
1:5:1
-1:-1
4:3:1
1:-1
1:2:1
-1:-1
1:4:1
-1:-1
0:3:1
-1:-1
0:4:1
-1:-1
1:5:1
-1:-1
4:3:1
1:-1
1:2:1
-1:-1
1:4:1
-1:-1
0:3:1
-1:-1
0:5:1
-1:-1
1:5:1
-1:-1
3:2:1
0:-1
1:3:1
-1:1
1:4:1
-1:-1
5:3:1
1:-1
0:4:1
-1:-1
1:5:1
-1:-1
4:2:1
1:-1
4:1:1
1:1
1:2:2
-1:-1
1:4:1
-1:-1
0:3:1
-1:-1
0:3:1
-1:-1
1:6:1
-1:-1
2:3:1
0:-1
4:1:1
1:-1
1:2:1
-1:-1
1:4:1
-1:-1
4:3:1
1:-1
1:4:1
-1:-1
1:4:1
-1:-1
5:3:1
1:-1
1:2:1
-1:-1
1:4:1
-1:-1
0:3:1
-1:-1
0:3:1
-1:-1
1:6:1
-1:-1
4:2:1
1:-1
4:2:1
1:1
1:1:2
-1:-1
1:4:1
-1:-1
0:3:1
-1:-1
0:4:1
-1:-1
1:5:1
-1:-1
4:3:1
1:-1
1:2:1
-1:-1
1:4:1
-1:-1
5:3:1
1:-1
4:9:1
1:1
4:5:2
1:-1
1:3:2
-1:0
3:4:1
0:-1
0:2:1
-1:-1
1:4:1
-1:-1
0:16:1
-1:-1
3:13:1
0:1
1:4:2
-1:-1
1:4:1
-1:-1
4:3:1
1:-1
1:4:1
-1:-1
1:7:1
-1:-1
0:2:1
-1:-1
0:26:1
-1:1
0:2:1
-1:-1
0:4:1
-1:-1
1:4:1
-1:-1
0:4:1
-1:-1
1:3:1
-1:-1
4:3:1
1:-1
1:3:1
-1:-1
1:7:1
-1:1
0:6:1
-1:-1
3:4:1
0:-1
3:2:1
0:1
3:5:2
0:0
0:3:2
-1:-1
0:4:1
-1:-1
3:5:1
0:-1
4:3:1
1:-1
0:2:1
-1:-1
1:4:1
-1:-1
4:3:1
1:-1
2:2:1
0:-1
1:3:1
-1:-1
1:4:1
-1:-1
5:4:1
1:-1
1:3:1
-1:-1
1:4:1
-1:-1
0:4:1
-1:-1
1:4:1
-1:-1
1:4:1
-1:-1
0:4:1
-1:-1
3:4:1
0:-1
1:3:1
-1:-1
1:4:1
-1:-1
0:5:1
-1:-1
1:5:1
-1:-1
1:4:1
-1:-1
0:3:1
-1:-1
1:4:1
-1:-1
4:6:1
1:-1
0:1:1
-1:-1
1:13:1
-1:-1
0:3:1
-1:-1
4:13:1
1:-1
0:6:1
-1:-1
0:3:1
-1:-1
0:4:1
-1:-1
1:6:1
-1:1
0:3:1
-1:-1
2:3:1
0:-1
1:4:1
-1:-1
4:3:1
1:-1
4:3:1
1:-1
1:3:1
-1:-1
1:4:1
-1:-1
0:5:1
-1:-1
1:5:1
-1:-1
0:3:1
-1:-1
4:5:1
1:-1
4:6:1
1:1
4:1:2
1:0
1:2:3
-1:-1
4:6:2
1:0
0:3:3
-1:-1
4:5:2
1:0
3:5:3
0:0
4:1:3
1:0
1:3:4
-1:-1
1:5:3
-1:-1
0:3:2
-1:-1
1:3:1
-1:-1
0:4:1
-1:-1
4:3:1
1:-1
5:1:1
1:1
1:3:2
-1:-1
1:4:1
-1:-1
0:3:1
-1:-1
1:4:1
-1:-1
1:7:1
-1:-1
0:2:1
-1:-1
1:3:1
-1:1
1:4:1
-1:-1
4:2:1
1:-1
1:9:1
-1:1
4:3:1
1:-1
1:3:1
-1:-1
1:4:1
-1:-1
0:3:1
-1:-1
1:4:1
-1:-1
1:4:1
-1:-1
0:4:1
-1:-1
1:3:1
-1:-1
1:4:1
-1:-1
4:2:1
1:-1
4:3:1
1:1
1:2:2
-1:-1
1:4:1
-1:-1
4:3:1
1:-1
1:3:1
-1:-1
1:4:1
-1:-1
0:3:1
-1:-1
1:4:1
-1:-1
1:4:1
-1:-1
4:2:1
1:-1
0:1:1
-1:-1
1:4:1
-1:-1
1:4:1
-1:-1
0:3:1
-1:-1
1:4:1
-1:-1
1:4:1
-1:-1
3:4:1
0:-1
4:1:1
1:-1
1:4:1
-1:-1
1:4:1
-1:-1
4:3:1
1:-1
1:3:1
-1:-1
1:4:1
-1:-1
0:3:1
-1:-1
4:5:1
1:-1
4:4:1
1:1
0:2:2
-1:-1
4:3:1
1:-1
4:4:1
1:1
5:2:2
1:0
0:6:3
-1:-1
3:4:2
0:-1
0:2:2
-1:-1
1:7:1
-1:-1
4:4:1
1:-1
0:2:1
-1:-1
1:3:1
-1:-1
4:4:1
1:-1
0:3:1
-1:-1
1:4:1
-1:-1
0:5:1
-1:-1
0:3:1
-1:-1
1:3:1
-1:-1
1:4:1
-1:-1
4:1:1
1:-1
4:4:1
1:1
1:2:2
-1:-1
1:4:1
-1:-1
4:3:1
1:-1
1:3:1
-1:-1
1:4:1
-1:-1
0:3:1
-1:-1
1:3:1
-1:-1
1:5:1
-1:-1
0:3:1
-1:-1
1:3:1
-1:-1
1:4:1
-1:-1
4:2:1
1:-1
4:2:1
1:-1
1:3:1
-1:-1
1:4:1
-1:-1
3:6:1
0:1
1:5:2
-1:-1
3:4:1
0:-1
0:3:1
-1:-1
1:4:1
-1:-1
4:4:1
1:-1
0:2:1
-1:-1
1:3:1
-1:-1
5:4:1
1:-1
0:2:1
-1:-1
1:4:1
-1:-1
0:4:1
-1:-1
4:3:1
1:-1
1:3:1
-1:-1
1:4:1
-1:-1
0:3:1
-1:-1
1:4:1
-1:-1
4:4:1
1:-1
1:5:1
-1:1
1:5:1
-1:-1
5:3:1
1:-1
1:5:1
-1:1
3:4:1
0:-1
4:2:1
1:1
1:2:2
-1:-1
1:4:1
-1:-1
0:4:1
-1:-1
1:4:1
-1:-1
1:4:1
-1:-1
4:3:1
1:-1
1:2:1
-1:-1
1:4:1
-1:-1
4:3:1
1:-1
0:2:1
-1:-1
1:4:1
-1:-1
0:8:1
-1:-1
3:11:1
0:-1
2:7:1
0:1
4:3:2
1:0
4:9:3
1:0
1:7:4
-1:0
3:2:3
0:-1
4:4:3
1:0
0:4:4
-1:-1
5:3:3
1:0
5:13:4
1:0
2:16:5
0:-1
0:5:5
-1:-1
3:2:4
0:-1
0:3:4
-1:-1
1:4:3
-1:-1
0:8:2
-1:-1
2:6:1
0:-1
1:13:1
-1:1
0:7:1
-1:1
1:3:1
-1:-1
4:2:1
1:-1
1:3:1
-1:-1
1:7:1
-1:-1
0:5:1
-1:-1
0:2:1
-1:-1
0:4:1
-1:-1
3:4:1
0:-1
4:2:1
1:1
1:3:2
-1:-1
1:4:1
-1:-1
4:3:1
1:-1
3:13:1
0:1
4:1:2
1:0
2:3:3
0:-1
0:4:3
-1:-1
4:6:2
1:-1
3:8:2
0:1
2:17:3
0:-1
1:3:3
-1:-1
2:3:2
0:-1
5:5:2
1:-1
4:3:2
1:0
1:4:3
-1:-1
1:4:2
-1:-1
4:3:1
1:-1
5:2:1
1:1
5:7:2
1:1
0:9:3
-1:0
4:2:2
1:-1
1:2:2
-1:-1
1:4:1
-1:-1
3:2:1
0:-1
4:3:1
1:-1
1:3:1
-1:-1
1:4:1
-1:-1
0:3:1
-1:-1
1:4:1
-1:1
1:4:1
-1:-1
0:3:1
-1:-1
1:4:1
-1:-1
1:5:1
-1:-1
4:4:1
1:-1
1:3:1
-1:-1
1:4:1
-1:-1
0:3:1
-1:-1
1:7:1
-1:1
1:4:1
-1:-1
3:1:1
0:-1
1:7:1
-1:1
0:3:1
-1:-1
1:4:1
-1:-1
1:4:1
-1:-1
0:3:1
-1:-1
1:3:1
-1:-1
1:4:1
-1:-1
0:3:1
-1:-1
1:4:1
-1:-1
1:4:1
-1:-1
4:4:1
1:-1
1:4:1
-1:-1
1:5:1
-1:-1
3:2:1
0:-1
0:4:1
-1:1
3:2:1
0:-1
3:4:1
0:1
3:6:2
0:-1
1:2:2
-1:-1
1:6:1
-1:-1
2:3:1
0:-1
0:1:1
-1:-1
0:6:1
-1:-1
0:10:1
-1:-1
2:3:1
0:-1
0:4:1
-1:-1
1:5:1
-1:-1
2:8:1
0:-1
0:4:1
-1:1
0:5:1
-1:-1
0:4:1
-1:-1
3:3:1
0:-1
1:3:1
-1:-1
1:5:1
-1:-1
0:3:1
-1:-1
1:5:1
-1:-1
3:4:1
0:-1
5:2:1
1:-1
1:2:1
-1:-1
4:5:1
1:-1
0:2:1
-1:-1
0:3:1
-1:-1
2:5:1
0:-1
3:6:1
0:1
3:3:2
0:0
3:4:2
0:0
0:2:2
-1:-1
4:4:1
1:-1
4:5:1
1:1
5:2:2
1:-1
5:2:2
1:-1
5:4:2
1:0
0:2:3
-1:-1
0:3:2
-1:-1
1:5:1
-1:-1
2:5:1
0:-1
2:4:1
0:-1
0:2:1
-1:-1
0:5:1
-1:-1
4:3:1
1:-1
1:4:1
-1:-1
1:5:1
-1:-1
4:3:1
1:-1
1:2:1
-1:-1
1:6:1
-1:-1
0:3:1
-1:-1
1:3:1
-1:-1
1:5:1
-1:-1
4:2:1
1:-1
3:1:1
0:-1
1:2:1
-1:-1
1:8:1
-1:1
0:4:1
-1:-1
3:4:1
0:-1
3:4:1
0:1
4:2:2
1:-1
0:2:2
-1:-1
4:7:1
1:-1
3:12:1
0:1
3:2:2
0:-1
0:9:2
-1:1
4:5:2
1:-1
3:18:2
0:-1
1:4:2
-1:-1
0:4:1
-1:-1
0:3:1
-1:-1
1:4:1
-1:-1
0:6:1
-1:-1
0:2:1
-1:-1
0:24:1
-1:1
0:7:1
-1:1
3:4:1
0:-1
4:3:1
1:-1
1:2:1
-1:-1
5:2:1
1:-1
0:3:1
-1:-1
1:4:1
-1:-1
3:3:1
0:-1
4:3:1
1:-1
5:2:1
1:-1
0:2:1
-1:-1
2:5:1
0:-1
3:4:1
0:-1
3:3:1
0:-1
1:3:1
-1:-1
1:4:1
-1:-1
3:3:1
0:-1
1:2:1
-1:-1
1:3:1
-1:-1
0:4:1
-1:-1
0:4:1
-1:-1
3:3:1
0:-1
4:5:1
1:1
4:2:2
1:-1
1:2:2
-1:-1
1:4:1
-1:-1
4:2:1
1:-1
4:3:1
1:-1
1:4:1
-1:-1
1:4:1
-1:-1
0:3:1
-1:-1
1:4:1
-1:1
1:4:1
-1:-1
0:3:1
-1:-1
0:6:1
-1:-1
3:2:1
0:-1
4:3:1
1:-1
4:3:1
1:1
0:6:2
-1:0
0:4:1
-1:1
4:6:1
1:-1
0:11:1
-1:-1
4:4:1
1:-1
1:10:1
-1:1
3:4:1
0:-1
1:2:1
-1:-1
0:5:1
-1:-1
1:5:1
-1:1
4:4:1
1:-1
3:3:1
0:-1
3:6:1
0:1
0:2:2
-1:-1
1:4:1
-1:-1
0:9:1
-1:-1
1:3:1
-1:-1
3:7:1
0:-1
3:5:1
0:1
5:2:2
1:-1
2:12:2
0:1
3:5:3
0:0
4:1:3
1:0
0:4:4
-1:-1
1:4:3
-1:-1
0:3:2
-1:-1
1:4:1
-1:-1
1:6:1
-1:-1
4:3:1
1:-1
1:4:1
-1:-1
1:4:1
-1:-1
0:5:1
-1:-1
0:4:1
-1:-1
3:2:1
0:-1
3:4:1
0:-1
0:2:1
-1:-1
4:6:1
1:1
2:12:2
0:-1
0:2:2
-1:-1
1:3:1
-1:-1
1:5:1
-1:-1
0:3:1
-1:-1
1:4:1
-1:-1
1:4:1
-1:-1
0:3:1
-1:-1
1:3:1
-1:-1
1:5:1
-1:-1
4:2:1
1:-1
4:2:1
1:-1
1:3:1
-1:-1
1:5:1
-1:-1
4:3:1
1:-1
1:2:1
-1:-1
1:4:1
-1:-1
0:3:1
-1:-1
0:5:1
-1:-1
3:7:1
0:-1
0:2:1
-1:-1
1:3:1
-1:-1
4:4:1
1:-1
0:2:1
-1:-1
0:4:1
-1:-1
0:5:1
-1:-1
4:2:1
1:-1
1:5:1
-1:1
4:4:1
1:-1
0:2:1
-1:-1
0:4:1
-1:-1
4:5:1
1:-1
0:7:1
-1:-1
3:6:1
0:-1
0:5:1
-1:-1
2:3:1
0:-1
0:4:1
-1:1
3:3:1
0:-1
3:4:1
0:1
4:2:2
1:0
1:3:3
-1:-1
1:4:2
-1:-1
4:3:1
1:-1
0:4:1
-1:-1
1:5:1
-1:-1
4:3:1
1:-1
1:2:1
-1:-1
1:4:1
-1:-1
0:3:1
-1:-1
0:3:1
-1:-1
1:7:1
-1:-1
2:2:1
0:-1
3:2:1
0:1
1:1:2
-1:-1
1:4:1
-1:-1
0:3:1
-1:-1
0:6:1
-1:-1
1:4:1
-1:-1
4:2:1
1:-1
1:2:1
-1:-1
1:4:1
-1:-1
4:2:1
1:-1
0:1:1
-1:-1
0:3:1
-1:-1
1:6:1
-1:-1
4:3:1
1:-1
1:2:1
-1:-1
1:4:1
-1:-1
4:2:1
1:-1
4:2:1
1:-1
1:4:1
-1:-1
1:4:1
-1:-1
4:3:1
1:-1
1:2:1
-1:-1
1:4:1
-1:-1
0:3:1
-1:-1
0:4:1
-1:-1
1:6:1
-1:-1
4:3:1
1:-1
1:2:1
-1:-1
1:4:1
-1:-1
4:2:1
1:-1
4:2:1
1:-1
0:3:1
-1:-1
1:7:1
-1:-1
3:3:1
0:-1
4:2:1
1:1
4:4:2
1:0
0:2:3
-1:-1
0:4:2
-1:-1
1:4:1
-1:-1
5:3:1
1:-1
0:2:1
-1:-1
1:4:1
-1:-1
0:3:1
-1:-1
1:4:1
-1:-1
1:5:1
-1:-1
3:3:1
0:-1
4:1:1
1:-1
1:2:1
-1:-1
1:4:1
-1:-1
4:3:1
1:-1
1:4:1
-1:-1
1:5:1
-1:-1
4:3:1
1:-1
1:2:1
-1:-1
1:4:1
-1:-1
0:3:1
-1:-1
1:4:1
-1:-1
1:5:1
-1:-1
3:3:1
0:-1
4:3:1
1:1
4:6:2
1:-1
1:4:2
-1:-1
0:5:1
-1:-1
0:6:1
-1:1
2:4:1
0:-1
0:5:1
-1:-1
0:4:1
-1:1
1:3:1
-1:-1
2:4:1
0:-1
0:3:1
-1:-1
1:4:1
-1:-1
1:5:1
-1:-1
4:3:1
1:-1
1:3:1
-1:-1
1:3:1
-1:-1
4:4:1
1:-1
0:4:1
-1:1
3:10:1
0:-1
1:3:1
-1:-1
0:13:1
-1:-1
3:12:1
0:1
3:5:2
0:-1
0:1:2
-1:-1
1:4:1
-1:-1
1:5:1
-1:-1
0:4:1
-1:-1
0:4:1
-1:-1
0:9:1
-1:1
1:4:1
-1:-1
2:1:1
0:-1
3:4:1
0:1
2:9:2
0:0
4:6:2
1:0
2:5:3
0:0
3:6:3
0:0
0:2:3
-1:-1
1:4:2
-1:-1
1:4:1
-1:-1
3:2:1
0:-1
0:1:1
-1:-1
1:3:1
-1:-1
1:6:1
-1:-1
0:3:1
-1:-1
1:5:1
-1:-1
1:4:1
-1:-1
4:2:1
1:-1
4:1:1
1:-1
4:3:1
1:-1
2:13:1
0:1
3:2:2
0:0
2:2:2
0:-1
1:4:2
-1:-1
0:5:1
-1:-1
3:11:1
0:-1
2:16:1
0:-1
2:5:1
0:-1
0:2:1
-1:-1
1:5:1
-1:-1
0:3:1
-1:-1
0:3:1
-1:-1
1:5:1
-1:-1
3:4:1
0:-1
4:8:1
1:1
4:5:2
1:1
5:6:3
1:1
1:2:4
-1:-1
1:5:3
-1:-1
0:3:2
-1:-1
0:5:1
-1:-1
3:2:1
0:-1
3:5:1
0:1
0:1:2
-1:-1
1:3:1
-1:1
0:4:1
-1:-1
3:3:1
0:-1
4:3:1
1:1
1:2:2
-1:-1
1:4:1
-1:-1
4:3:1
1:-1
1:2:1
-1:-1
1:5:1
-1:-1
0:3:1
-1:-1
0:4:1
-1:-1
1:5:1
-1:-1
4:1:1
1:-1
4:1:1
1:1
1:5:2
-1:-1
3:3:1
0:-1
0:3:1
-1:-1
1:4:1
-1:-1
1:6:1
-1:-1
3:2:1
0:-1
3:1:1
0:-1
1:2:1
-1:-1
1:6:1
-1:-1
4:4:1
1:-1
1:3:1
-1:-1
1:4:1
-1:-1
5:3:1
1:-1
1:2:1
-1:-1
1:4:1
-1:-1
0:4:1
-1:-1
1:4:1
-1:-1
1:4:1
-1:-1
4:2:1
1:-1
4:3:1
1:1
1:1:2
-1:-1
1:4:1
-1:-1
4:4:1
1:-1
1:4:1
-1:-1
1:4:1
-1:-1
4:3:1
1:-1
1:3:1
-1:-1
1:4:1
-1:-1
0:4:1
-1:-1
3:4:1
0:1
1:3:2
-1:-1
1:4:1
-1:-1
3:3:1
0:-1
1:2:1
-1:-1
1:4:1
-1:-1
4:2:1
1:-1
4:3:1
1:-1
1:3:1
-1:-1
1:4:1
-1:-1
4:3:1
1:-1
1:2:1
-1:-1
1:4:1
-1:-1
0:4:1
-1:-1
1:4:1
-1:-1
1:4:1
-1:-1
4:3:1
1:-1
1:3:1
-1:-1
1:4:1
-1:-1
4:2:1
1:-1
4:3:1
1:-1
1:5:1
-1:-1
3:4:1
0:-1
4:2:1
1:1
4:2:2
1:0
4:4:3
1:0
0:3:4
-1:-1
0:3:3
-1:-1
1:5:2
-1:-1
3:3:1
0:-1
1:2:1
-1:-1
1:4:1
-1:-1
0:4:1
-1:-1
1:4:1
-1:-1
1:4:1
-1:-1
4:3:1
1:-1
1:2:1
-1:-1
1:4:1
-1:-1
0:4:1
-1:-1
1:3:1
-1:-1
1:5:1
-1:-1
3:2:1
0:-1
4:1:1
1:1
1:2:2
-1:-1
1:4:1
-1:-1
0:3:1
-1:-1
0:5:1
-1:-1
4:2:1
1:-1
3:4:1
0:1
4:2:2
1:0
1:2:3
-1:-1
1:4:2
-1:-1
4:6:1
1:-1
3:9:1
0:1
4:1:2
1:-1
1:2:2
-1:-1
1:4:1
-1:-1
3:2:1
0:-1
0:1:1
-1:-1
1:4:1
-1:-1
0:14:1
-1:-1
0:17:1
-1:1
1:4:1
-1:1
3:3:1
0:-1
4:3:1
1:1
1:3:2
-1:-1
1:6:1
-1:-1
2:27:1
0:-1
0:1:1
-1:-1
0:3:1
-1:-1
0:7:1
-1:-1
3:4:1
0:-1
1:2:1
-1:-1
4:3:1
1:-1
0:3:1
-1:-1
1:5:1
-1:-1
0:5:1
-1:-1
4:4:1
1:1
0:1:2
-1:-1
2:5:1
0:-1
0:2:1
-1:-1
0:2:1
-1:-1
1:6:1
-1:-1
1:4:1
-1:-1
3:3:1
0:-1
0:2:1
-1:-1
1:4:1
-1:-1
0:4:1
-1:-1
1:6:1
-1:-1
1:4:1
-1:-1
4:3:1
1:-1
1:3:1
-1:-1
1:6:1
-1:-1
4:2:1
1:-1
3:4:1
0:1
1:2:2
-1:-1
3:5:1
0:-1
4:3:1
1:1
0:2:2
-1:-1
1:5:1
-1:-1
0:3:1
-1:-1
1:4:1
-1:-1
1:3:1
-1:-1
5:4:1
1:-1
0:7:1
-1:1
0:5:1
-1:1
4:13:1
1:-1
0:12:1
-1:1
2:4:1
0:-1
1:2:1
-1:-1
4:2:1
1:-1
0:3:1
-1:-1
1:6:1
-1:1
4:3:1
1:-1
2:4:1
0:-1
1:4:1
-1:-1
0:3:1
-1:-1
0:12:1
-1:-1
2:5:1
0:1
3:11:2
0:1
1:16:3
-1:0
0:2:2
-1:-1
1:4:1
-1:-1
2:5:1
0:1
3:3:2
0:-1
4:2:2
1:-1
1:3:2
-1:-1
1:6:1
-1:-1
2:8:1
0:-1
0:5:1
-1:1
0:6:1
-1:-1
0:2:1
-1:-1
4:4:1
1:-1
1:6:1
-1:-1
2:3:1
0:1
0:12:2
-1:0
4:3:1
1:-1
4:2:1
1:-1
4:2:1
1:1
3:5:2
0:0
0:3:2
-1:-1
0:6:1
-1:-1
1:4:1
-1:-1
4:3:1
1:-1
1:2:1
-1:-1
1:5:1
-1:-1
4:2:1
1:-1
0:1:1
-1:-1
1:5:1
-1:-1
1:4:1
-1:-1
4:3:1
1:-1
1:2:1
-1:-1
1:5:1
-1:-1
4:2:1
1:-1
4:2:1
1:-1
1:5:1
-1:-1
3:7:1
0:-1
2:4:1
0:1
3:4:2
0:-1
4:5:2
1:-1
0:2:2
-1:-1
1:4:1
-1:-1
4:4:1
1:-1
4:2:1
1:-1
1:4:1
-1:-1
0:5:1
-1:-1
4:2:1
1:-1
4:3:1
1:1
1:2:2
-1:-1
1:7:1
-1:-1
0:3:1
-1:-1
1:3:1
-1:-1
1:5:1
-1:-1
0:3:1
-1:-1
1:3:1
-1:-1
1:4:1
-1:-1
4:2:1
1:-1
5:1:1
1:1
1:2:2
-1:-1
1:7:1
-1:-1
0:2:1
-1:-1
1:2:1
-1:-1
1:4:1
-1:-1
4:2:1
1:-1
4:1:1
1:-1
1:2:1
-1:-1
4:7:1
1:-1
4:2:1
1:1
1:2:2
-1:-1
4:6:1
1:-1
3:2:1
0:-1
1:2:1
-1:-1
0:5:1
-1:-1
0:3:1
-1:-1
1:4:1
-1:-1
1:4:1
-1:-1
4:2:1
1:-1
4:1:1
1:-1
1:2:1
-1:-1
1:5:1
-1:-1
0:4:1
-1:-1
1:3:1
-1:-1
1:5:1
-1:-1
4:3:1
1:-1
1:2:1
-1:-1
1:5:1
-1:-1
0:3:1
-1:-1
1:4:1
-1:-1
1:4:1
-1:-1
4:3:1
1:-1
1:3:1
-1:-1
1:5:1
-1:-1
4:2:1
1:-1
0:7:1
-1:1
3:1:1
0:-1
3:5:1
0:1
4:2:2
1:-1
4:2:2
1:-1
4:5:2
1:0
0:4:3
-1:-1
0:7:2
-1:-1
2:5:1
0:-1
4:2:1
1:-1
0:2:1
-1:-1
4:6:1
1:-1
0:2:1
-1:-1
1:4:1
-1:-1
1:4:1
-1:-1
4:3:1
1:-1
1:2:1
-1:-1
1:5:1
-1:-1
5:4:1
1:-1
1:4:1
-1:-1
1:4:1
-1:-1
4:3:1
1:-1
1:2:1
-1:-1
1:4:1
-1:-1
0:4:1
-1:-1
1:4:1
-1:-1
1:5:1
-1:-1
3:1:1
0:-1
4:3:1
1:1
1:1:2
-1:-1
1:4:1
-1:-1
4:4:1
1:-1
1:4:1
-1:-1
1:4:1
-1:-1
4:3:1
1:-1
3:6:1
0:1
0:6:2
-1:1
3:5:2
0:-1
1:7:2
-1:-1
0:4:1
-1:-1
3:2:1
0:-1
4:5:1
1:1
5:2:2
1:0
1:2:3
-1:-1
2:4:2
0:-1
0:4:2
-1:-1
1:4:1
-1:-1
1:4:1
-1:-1
4:3:1
1:-1
1:2:1
-1:-1
1:3:1
-1:-1
0:5:1
-1:-1
3:5:1
0:-1
1:8:1
-1:1
2:17:1
0:-1
2:6:1
0:1
0:3:2
-1:-1
0:8:1
-1:1
0:3:1
-1:-1
3:5:1
0:1
3:5:2
0:0
0:2:2
-1:-1
0:4:1
-1:-1
0:7:1
-1:1
2:4:1
0:-1
2:5:1
0:1
3:2:2
0:-1
3:4:2
0:-1
1:9:2
-1:1
0:5:2
-1:-1
1:4:1
-1:-1
4:3:1
1:-1
4:3:1
1:-1
1:3:1
-1:-1
1:4:1
-1:-1
4:3:1
1:-1
1:2:1
-1:-1
1:4:1
-1:-1
0:4:1
-1:-1
3:6:1
0:-1
3:4:1
0:1
4:2:2
1:-1
2:4:2
0:0
3:10:2
0:-1
3:3:2
0:0
1:2:2
-1:-1
3:7:1
0:-1
2:4:1
0:-1
0:5:1
-1:-1
0:8:1
-1:-1
0:11:1
-1:-1
0:12:1
-1:1
0:4:1
-1:-1
3:6:1
0:-1
0:4:1
-1:-1
1:7:1
-1:-1
2:10:1
0:-1
1:11:1
-1:1
2:8:1
0:-1
5:1:1
1:-1
1:2:1
-1:-1
1:4:1
-1:-1
3:3:1
0:-1
0:5:1
-1:1
3:2:1
0:-1
3:5:1
0:1
0:1:2
-1:-1
1:3:1
-1:1
1:4:1
-1:-1
3:2:1
0:-1
0:1:1
-1:-1
4:5:1
1:-1
3:5:1
0:1
4:2:2
1:-1
1:2:2
-1:-1
1:4:1
-1:-1
4:2:1
1:-1
4:2:1
1:-1
4:5:1
1:1
0:7:2
-1:-1
0:3:1
-1:-1
3:9:1
0:1
0:2:2
-1:-1
1:4:1
-1:-1
3:4:1
0:-1
0:2:1
-1:-1
1:3:1
-1:-1
5:4:1
1:-1
0:2:1
-1:-1
0:4:1
-1:-1
0:6:1
-1:1
2:5:1
0:-1
3:1:1
0:-1
1:3:1
-1:-1
1:4:1
-1:-1
4:3:1
1:-1
1:3:1
-1:-1
1:4:1
-1:-1
0:3:1
-1:-1
1:3:1
-1:-1
1:4:1
-1:-1
0:4:1
-1:-1
1:3:1
-1:-1
1:4:1
-1:-1
4:2:1
1:-1
4:1:1
1:-1
1:4:1
-1:-1
2:4:1
0:1
0:4:2
-1:-1
3:5:1
0:-1
4:4:1
1:1
0:2:2
-1:-1
0:3:1
-1:-1
1:4:1
-1:-1
0:3:1
-1:-1
1:4:1
-1:-1
1:4:1
-1:-1
0:3:1
-1:-1
1:3:1
-1:-1
1:5:1
-1:-1
4:2:1
1:-1
0:4:1
-1:1
1:5:1
-1:-1
4:3:1
1:-1
0:1:1
-1:-1
1:5:1
-1:-1
1:4:1
-1:-1
3:2:1
0:-1
0:1:1
-1:-1
1:4:1
-1:-1
1:4:1
-1:-1
0:3:1
-1:-1
1:3:1
-1:-1
1:4:1
-1:-1
4:2:1
1:-1
0:2:1
-1:-1
1:3:1
-1:-1
4:5:1
1:-1
4:2:1
1:1
1:3:2
-1:-1
1:4:1
-1:-1
0:3:1
-1:-1
1:4:1
-1:-1
1:4:1
-1:-1
0:3:1
-1:-1
5:3:1
1:-1
0:7:1
-1:1
1:3:1
-1:-1
1:5:1
-1:-1
3:2:1
0:-1
3:1:1
0:-1
1:2:1
-1:-1
1:5:1
-1:-1
4:3:1
1:-1
1:4:1
-1:-1
1:4:1
-1:-1
4:3:1
1:-1
0:6:1
-1:-1
0:5:1
-1:-1
2:6:1
0:-1
4:8:1
1:1
4:1:2
1:0
1:2:3
-1:-1
1:4:2
-1:-1
3:2:1
0:-1
4:2:1
1:-1
1:3:1
-1:-1
0:11:1
-1:-1
0:15:1
-1:1
3:3:1
0:-1
1:3:1
-1:-1
0:6:1
-1:-1
0:25:1
-1:1
1:4:1
-1:1
2:5:1
0:1
3:2:2
0:-1
0:2:2
-1:-1
4:3:1
1:-1
0:6:1
-1:-1
1:3:1
-1:-1
0:4:1
-1:-1
4:4:1
1:-1
5:2:1
1:1
1:1:2
-1:-1
2:5:1
0:-1
0:4:1
-1:-1
1:3:1
-1:-1
0:4:1
-1:-1
4:3:1
1:-1
4:2:1
1:1
1:2:2
-1:-1
1:3:1
-1:-1
1:3:1
-1:-1
4:4:1
1:-1
1:1:1
-1:-1
0:4:1
-1:-1
5:4:1
1:-1
1:2:1
-1:-1
1:4:1
-1:-1
0:3:1
-1:-1
1:4:1
-1:-1
0:5:1
-1:-1
3:3:1
0:-1
3:3:1
0:1
1:3:2
-1:-1
1:4:1
-1:-1
0:3:1
-1:-1
1:4:1
-1:-1
0:3:1
-1:-1
4:3:1
1:-1
5:3:1
1:1
4:7:2
1:0
4:1:3
1:-1
3:6:3
0:0
3:8:3
0:0
0:5:3
-1:0
0:3:2
-1:-1
4:13:1
1:-1
4:4:1
1:1
0:2:2
-1:-1
3:4:1
0:-1
1:6:1
-1:1
0:3:1
-1:-1
3:2:1
0:-1
2:2:1
0:-1
1:4:1
-1:-1
1:3:1
-1:-1
1:5:1
-1:-1
4:7:1
1:-1
1:3:1
-1:-1
1:7:1
-1:1
4:7:1
1:1
4:5:2
1:0
3:5:3
0:0
1:8:3
-1:0
4:4:2
1:-1
0:2:2
-1:-1
1:3:1
-1:1
1:4:1
-1:-1
3:2:1
0:-1
4:2:1
1:-1
1:3:1
-1:-1
1:4:1
-1:-1
0:4:1
-1:-1
0:3:1
-1:-1
1:6:1
-1:-1
0:3:1
-1:-1
3:8:1
0:-1
3:4:1
0:-1
0:2:1
-1:-1
1:7:1
-1:1
3:10:1
0:1
2:4:2
0:0
2:1:2
0:-1
1:4:2
-1:-1
1:4:1
-1:-1
3:8:1
0:-1
3:4:1
0:1
4:2:2
1:-1
1:2:2
-1:-1
1:4:1
-1:-1
0:3:1
-1:-1
1:5:1
-1:-1
1:4:1
-1:-1
4:3:1
1:-1
1:2:1
-1:-1
1:4:1
-1:-1
4:2:1
1:-1
4:2:1
1:-1
1:4:1
-1:-1
1:4:1
-1:-1
4:3:1
1:-1
1:2:1
-1:-1
1:4:1
-1:-1
0:3:1
-1:-1
1:4:1
-1:-1
1:4:1
-1:-1
0:3:1
-1:-1
1:3:1
-1:-1
1:4:1
-1:-1
4:2:1
1:-1
4:2:1
1:-1
1:3:1
-1:-1
1:4:1
-1:-1
4:3:1
1:-1
1:4:1
-1:-1
1:4:1
-1:-1
0:3:1
-1:-1
1:5:1
-1:-1
1:4:1
-1:-1
4:4:1
1:-1
1:2:1
-1:-1
1:4:1
-1:-1
0:3:1
-1:-1
1:5:1
-1:-1
1:4:1
-1:-1
4:2:1
1:-1
1:3:1
-1:1
1:4:1
-1:-1
0:3:1
-1:-1
1:4:1
-1:-1
1:5:1
-1:-1
2:2:1
0:-1
3:1:1
0:1
1:2:2
-1:-1
1:4:1
-1:-1
0:3:1
-1:-1
1:5:1
-1:-1
1:4:1
-1:-1
4:2:1
1:-1
4:1:1
1:-1
1:2:1
-1:-1
1:4:1
-1:-1
0:3:1
-1:-1
1:4:1
-1:-1
1:5:1
-1:-1
4:3:1
1:-1
1:2:1
-1:-1
1:4:1
-1:-1
0:3:1
-1:-1
1:5:1
-1:-1
1:4:1
-1:-1
4:2:1
1:-1
4:2:1
1:1
1:1:2
-1:-1
1:4:1
-1:-1
0:3:1
-1:-1
0:6:1
-1:-1
1:4:1
-1:-1
4:3:1
1:-1
1:2:1
-1:-1
1:4:1
-1:-1
0:4:1
-1:-1
1:5:1
-1:-1
1:4:1
-1:-1
4:3:1
1:-1
1:2:1
-1:-1
1:4:1
-1:-1
4:2:1
1:-1
4:2:1
1:-1
1:4:1
-1:-1
1:4:1
-1:-1
4:3:1
1:-1
1:2:1
-1:-1
1:4:1
-1:-1
0:3:1
-1:-1
1:5:1
-1:-1
1:4:1
-1:-1
4:3:1
1:-1
1:2:1
-1:-1
1:4:1
-1:-1
4:2:1
1:-1
5:3:1
1:1
1:3:2
-1:-1
1:4:1
-1:-1
4:3:1
1:-1
1:2:1
-1:-1
1:5:1
-1:-1
0:3:1
-1:-1
1:5:1
-1:-1
1:4:1
-1:-1
4:4:1
1:-1
0:8:1
-1:1
1:6:1
-1:-1
0:10:1
-1:1
2:4:1
0:-1
0:5:1
-1:-1
2:3:1
0:1
1:3:2
-1:0
2:4:1
0:-1
0:3:1
-1:-1
4:6:1
1:-1
4:4:1
1:1
0:3:2
-1:-1
1:3:1
-1:-1
1:3:1
-1:-1
4:3:1
1:-1
2:2:1
0:1
4:9:2
1:1
1:3:3
-1:0
1:15:2
-1:-1
0:9:1
-1:-1
1:4:1
-1:-1
3:2:1
0:-1
4:2:1
1:-1
1:3:1
-1:-1
1:8:1
-1:-1
0:7:1
-1:-1
0:3:1
-1:-1
1:6:1
-1:1
2:12:1
0:1
2:2:2
0:-1
1:1:2
-1:-1
1:4:1
-1:-1
1:4:1
-1:-1
4:6:1
1:-1
1:2:1
-1:-1
0:4:1
-1:-1
3:3:1
0:-1
4:2:1
1:-1
1:3:1
-1:-1
1:4:1
-1:-1
4:4:1
1:-1
3:13:1
0:1
4:1:2
1:0
2:2:3
0:-1
1:4:3
-1:-1
0:8:2
-1:-1
2:10:1
0:1
3:3:2
0:0
3:5:2
0:0
3:4:2
0:0
1:2:2
-1:-1
4:7:1
1:-1
3:8:1
0:-1
3:9:1
0:1
0:6:2
-1:-1
0:7:1
-1:-1
0:4:1
-1:-1
3:4:1
0:1
3:3:2
0:0
0:1:2
-1:-1
0:5:1
-1:-1
1:4:1
-1:-1
0:3:1
-1:-1
1:5:1
-1:-1
1:4:1
-1:-1
4:2:1
1:-1
4:2:1
1:1
0:1:2
-1:-1
1:5:1
-1:-1
0:3:1
-1:-1
3:7:1
0:1
4:4:2
1:-1
1:7:2
-1:1
0:3:2
-1:-1
1:5:1
-1:-1
1:6:1
-1:-1
1:3:1
-1:-1
1:3:1
-1:-1
3:2:1
0:-1
3:4:1
0:1
0:2:2
-1:-1
1:5:1
-1:-1
1:4:1
-1:-1
3:3:1
0:-1
4:1:1
1:-1
1:2:1
-1:-1
1:4:1
-1:-1
1:3:1
-1:-1
1:6:1
-1:-1
1:4:1
-1:-1
4:3:1
1:-1
1:2:1
-1:-1
1:5:1
-1:-1
0:3:1
-1:-1
1:5:1
-1:-1
1:4:1
-1:-1
3:2:1
0:-1
4:1:1
1:-1
1:5:1
-1:-1
1:4:1
-1:-1
3:5:1
0:-1
0:6:1
-1:1
2:3:1
0:-1
2:4:1
0:1
3:2:2
0:-1
1:2:2
-1:-1
1:4:1
-1:-1
0:3:1
-1:-1
1:5:1
-1:-1
1:4:1
-1:-1
4:2:1
1:-1
4:2:1
1:1
1:1:2
-1:-1
4:7:1
1:-1
0:2:1
-1:-1
1:6:1
-1:-1
3:4:1
0:-1
4:3:1
1:-1
1:2:1
-1:-1
0:4:1
-1:-1
4:2:1
1:-1
0:3:1
-1:-1
1:5:1
-1:-1
1:4:1
-1:-1
4:3:1
1:-1
1:2:1
-1:-1
1:4:1
-1:-1
4:2:1
1:-1
4:2:1
1:-1
1:3:1
-1:-1
1:5:1
-1:-1
4:3:1
1:-1
1:2:1
-1:-1
1:5:1
-1:-1
0:3:1
-1:-1
1:5:1
-1:-1
1:4:1
-1:-1
4:3:1
1:-1
1:3:1
-1:1
0:6:1
-1:-1
1:6:1
-1:-1
0:5:1
-1:-1
3:3:1
0:-1
1:3:1
-1:1
1:4:1
-1:-1
4:3:1
1:-1
1:4:1
-1:-1
1:5:1
-1:-1
4:2:1
1:-1
4:1:1
1:1
4:3:2
1:-1
4:13:2
1:0
4:3:3
1:-1
0:9:3
-1:0
4:6:2
1:-1
2:18:2
0:-1
2:5:2
0:0
2:2:2
0:-1
0:24:2
-1:-1
0:7:1
-1:-1
2:4:1
0:-1
0:4:1
-1:-1
0:4:1
-1:-1
0:4:1
-1:-1
0:4:1
-1:-1
1:4:1
-1:-1
0:4:1
-1:-1
4:5:1
1:1
4:1:2
1:0
1:2:3
-1:-1
2:4:2
0:-1
0:5:2
-1:-1
1:4:1
-1:-1
1:4:1
-1:-1
3:2:1
0:-1
4:1:1
1:-1
1:2:1
-1:-1
1:4:1
-1:-1
0:5:1
-1:-1
1:4:1
-1:-1
1:5:1
-1:-1
4:3:1
1:-1
1:2:1
-1:-1
1:4:1
-1:-1
0:4:1
-1:-1
1:4:1
-1:-1
0:4:1
-1:-1
4:5:1
1:-1
1:3:1
-1:-1
2:5:1
0:-1
3:4:1
0:-1
0:4:1
-1:1
3:2:1
0:-1
4:4:1
1:1
4:1:2
1:0
1:2:3
-1:-1
1:5:2
-1:-1
4:3:1
1:-1
0:1:1
-1:-1
1:4:1
-1:-1
1:4:1
-1:-1
1:9:1
-1:1
0:4:1
-1:-1
0:4:1
-1:-1
3:7:1
0:-1
1:3:1
-1:1
4:4:1
1:-1
5:2:1
1:1
0:5:2
-1:-1
1:6:1
-1:1
3:4:1
0:-1
2:2:1
0:-1
1:4:1
-1:-1
0:4:1
-1:-1
1:4:1
-1:-1
3:6:1
0:-1
0:3:1
-1:1
4:3:1
1:-1
4:4:1
1:1
4:2:2
1:0
4:5:3
1:0
4:4:4
1:0
4:2:5
1:-1
1:2:5
-1:-1
0:5:4
-1:-1
4:6:3
1:-1
1:7:3
-1:0
0:2:2
-1:-1
0:6:1
-1:1
3:3:1
0:1
3:4:2
0:0
0:2:2
-1:-1
1:4:1
-1:-1
1:6:1
-1:-1
3:3:1
0:-1
3:1:1
0:-1
1:4:1
-1:-1
0:4:1
-1:-1
0:4:1
-1:-1
1:4:1
-1:-1
1:4:1
-1:-1
0:2:1
-1:-1
1:4:1
-1:-1
1:4:1
-1:-1
3:9:1
0:-1
3:8:1
0:1
3:3:2
0:0
1:1:2
-1:-1
1:4:1
-1:-1
3:2:1
0:-1
4:2:1
1:-1
1:3:1
-1:-1
1:5:1
-1:-1
3:7:1
0:-1
1:2:1
-1:-1
1:4:1
-1:-1
0:3:1
-1:-1
1:4:1
-1:-1
1:5:1
-1:-1
4:3:1
1:-1
1:2:1
-1:-1
1:4:1
-1:-1
0:3:1
-1:-1
1:4:1
-1:-1
1:4:1
-1:-1
3:5:1
0:-1
1:6:1
-1:1
3:5:1
0:-1
0:2:1
-1:-1
1:3:1
-1:-1
0:4:1
-1:-1
4:4:1
1:-1
1:2:1
-1:-1
4:5:1
1:-1
0:2:1
-1:-1
1:4:1
-1:-1
0:4:1
-1:-1
4:3:1
1:-1
3:4:1
0:-1
1:2:1
-1:-1
1:6:1
-1:-1
3:3:1
0:-1
1:3:1
-1:-1
1:4:1
-1:-1
4:4:1
1:-1
1:2:1
-1:-1
1:4:1
-1:-1
0:3:1
-1:-1
1:3:1
-1:-1
1:4:1
-1:-1
4:3:1
1:-1
4:2:1
1:1
1:1:2
-1:-1
1:4:1
-1:-1
2:3:1
0:1
1:4:2
-1:0
0:5:1
-1:-1
3:4:1
0:-1
1:2:1
-1:-1
4:4:1
1:-1
0:2:1
-1:-1
1:4:1
-1:-1
0:4:1
-1:-1
4:4:1
1:-1
1:2:1
-1:-1
1:4:1
-1:-1
4:2:1
1:-1
5:2:1
1:1
1:2:2
-1:-1
1:5:1
-1:-1
3:4:1
0:-1
1:2:1
-1:-1
1:4:1
-1:-1
0:3:1
-1:-1
1:4:1
-1:-1
1:4:1
-1:-1
4:6:1
1:-1
1:2:1
-1:-1
1:4:1
-1:-1
4:2:1
1:-1
4:2:1
1:-1
0:3:1
-1:-1
1:5:1
-1:-1
0:8:1
-1:-1
1:3:1
-1:-1
1:4:1
-1:-1
4:3:1
1:-1
1:5:1
-1:-1
1:4:1
-1:-1
2:9:1
0:-1
1:2:1
-1:-1
1:4:1
-1:-1
1:3:1
-1:1
1:5:1
-1:1
4:4:1
1:-1
4:3:1
1:1
1:2:2
-1:-1
4:4:1
1:-1
5:2:1
1:-1
1:3:1
-1:-1
0:4:1
-1:-1
4:2:1
1:-1
5:1:1
1:1
1:2:2
-1:-1
1:4:1
-1:-1
5:3:1
1:-1
1:3:1
-1:-1
1:4:1
-1:-1
3:4:1
0:-1
3:1:1
0:-1
1:2:1
-1:-1
3:4:1
0:-1
4:2:1
1:1
4:4:2
1:0
0:4:3
-1:-1
4:4:2
1:-1
0:2:2
-1:-1
1:4:1
-1:-1
0:3:1
-1:-1
1:4:1
-1:-1
1:4:1
-1:-1
4:3:1
1:-1
4:2:1
1:1
3:5:2
0:-1
0:5:2
-1:1
1:2:2
-1:-1
4:5:1
1:-1
5:2:1
1:1
1:3:2
-1:-1
2:5:1
0:-1
0:3:1
-1:-1
1:4:1
-1:-1
1:4:1
-1:-1
5:3:1
1:-1
1:2:1
-1:-1
1:4:1
-1:-1
4:3:1
1:-1
4:3:1
1:1
1:2:2
-1:-1
1:4:1
-1:-1
5:3:1
1:-1
1:2:1
-1:-1
0:5:1
-1:-1
0:12:1
-1:1
1:13:1
-1:1
0:4:1
-1:1
0:7:1
-1:-1
1:4:1
-1:-1
1:4:1
-1:-1
0:3:1
-1:-1
1:4:1
-1:1
1:4:1
-1:-1
3:2:1
0:-1
4:2:1
1:-1
0:4:1
-1:-1
0:8:1
-1:1
2:4:1
0:-1
0:6:1
-1:1
0:3:1
-1:1
2:5:1
0:-1
1:10:1
-1:1
1:7:1
-1:-1
1:5:1
-1:-1
0:3:1
-1:-1
0:4:1
-1:-1
0:5:1
-1:-1
3:3:1
0:-1
3:2:1
0:-1
1:2:1
-1:-1
1:4:1
-1:-1
4:2:1
1:-1
4:3:1
1:-1
1:3:1
-1:-1
1:4:1
-1:-1
4:4:1
1:-1
4:3:1
1:-1
1:14:1
-1:1
0:3:1
-1:-1
1:3:1
-1:-1
1:4:1
-1:-1
0:6:1
-1:-1
0:16:1
-1:-1
2:10:1
0:1
3:7:2
0:0
0:2:2
-1:-1
2:3:1
0:-1
1:4:1
-1:-1
0:3:1
-1:-1
1:4:1
-1:-1
1:4:1
-1:-1
0:3:1
-1:-1
0:3:1
-1:-1
4:2:1
1:-1
3:5:1
0:1
0:2:2
-1:-1
3:7:1
0:-1
4:4:1
1:1
0:2:2
-1:-1
1:5:1
-1:-1
3:2:1
0:-1
4:3:1
1:-1
1:4:1
-1:-1
1:4:1
-1:-1
4:2:1
1:-1
0:3:1
-1:-1
1:5:1
-1:-1
0:4:1
-1:-1
1:5:1
-1:-1
1:4:1
-1:-1
4:3:1
1:-1
0:2:1
-1:-1
1:5:1
-1:-1
4:2:1
1:-1
4:3:1
1:1
1:3:2
-1:-1
1:4:1
-1:-1
0:2:1
-1:-1
0:6:1
-1:1
1:5:1
-1:-1
0:3:1
-1:-1
1:6:1
-1:-1
1:4:1
-1:-1
4:3:1
1:-1
0:4:1
-1:-1
1:5:1
-1:-1
0:3:1
-1:-1
0:4:1
-1:-1
1:7:1
-1:-1
3:2:1
0:-1
3:1:1
0:-1
0:2:1
-1:-1
1:5:1
-1:-1
4:5:1
1:-1
1:4:1
-1:-1
1:4:1
-1:-1
1:5:1
-1:-1
0:6:1
-1:1
1:4:1
-1:-1
0:3:1
-1:-1
4:3:1
1:-1
5:4:1
1:1
5:2:2
1:0
0:7:3
-1:-1
3:4:2
0:-1
0:5:2
-1:-1
3:5:1
0:-1
4:3:1
1:1
4:2:2
1:-1
0:2:2
-1:-1
5:5:1
1:-1
0:2:1
-1:-1
1:4:1
-1:-1
0:4:1
-1:-1
4:3:1
1:-1
0:2:1
-1:-1
1:5:1
-1:-1
4:2:1
1:-1
0:4:1
-1:1
4:2:1
1:-1
4:5:1
1:1
4:2:2
1:-1
1:3:2
-1:-1
1:4:1
-1:-1
4:2:1
1:-1
0:1:1
-1:-1
4:5:1
1:-1
4:4:1
1:1
5:2:2
1:-1
0:2:2
-1:-1
1:5:1
-1:-1
4:2:1
1:-1
4:2:1
1:-1
1:2:1
-1:-1
3:8:1
0:-1
0:2:1
-1:-1
0:5:1
-1:1
3:5:1
0:-1
0:2:1
-1:-1
1:4:1
-1:-1
4:4:1
1:-1
5:2:1
1:-1
0:2:1
-1:-1
0:5:1
-1:-1
4:2:1
1:-1
5:3:1
1:1
1:2:2
-1:-1
1:5:1
-1:-1
3:3:1
0:-1
0:2:1
-1:-1
1:5:1
-1:-1
0:3:1
-1:-1
1:4:1
-1:-1
1:4:1
-1:-1
5:3:1
1:-1
0:2:1
-1:-1
1:5:1
-1:-1
0:3:1
-1:-1
4:5:1
1:-1
4:4:1
1:1
4:3:2
1:0
1:2:3
-1:-1
1:5:2
-1:-1
4:3:1
1:-1
1:4:1
-1:-1
1:4:1
-1:-1
2:17:1
0:-1
4:11:1
1:1
0:3:2
-1:0
2:3:1
0:1
3:4:2
0:0
0:2:2
-1:-1
1:4:1
-1:-1
0:7:1
-1:-1
3:3:1
0:-1
0:25:1
-1:1
0:5:1
-1:-1
1:6:1
-1:1
2:2:1
0:1
1:2:2
-1:-1
4:3:1
1:-1
0:3:1
-1:-1
1:4:1
-1:-1
0:3:1
-1:-1
5:5:1
1:1
1:2:2
-1:-1
2:4:1
0:-1
0:3:1
-1:-1
0:2:1
-1:-1
1:4:1
-1:-1
1:4:1
-1:-1
3:4:1
0:-1
1:2:1
-1:-1
1:3:1
-1:-1
0:4:1
-1:-1
0:4:1
-1:-1
3:2:1
0:-1
0:4:1
-1:-1
4:3:1
1:-1
1:2:1
-1:-1
1:4:1
-1:-1
4:2:1
1:-1
4:3:1
1:1
1:2:2
-1:-1
1:5:1
-1:-1
3:5:1
0:-1
1:2:1
-1:-1
1:6:1
-1:-1
0:3:1
-1:-1
1:4:1
-1:-1
1:3:1
-1:-1
0:4:1
-1:-1
1:3:1
-1:-1
4:6:1
1:-1
0:3:1
-1:-1
1:4:1
-1:-1
1:4:1
-1:-1
3:8:1
0:-1
3:6:1
0:1
0:2:2
-1:-1
1:3:1
-1:-1
4:8:1
1:-1
5:1:1
1:-1
5:4:1
1:1
0:3:2
-1:-1
0:4:1
-1:-1
1:6:1
-1:1
4:3:1
1:-1
2:2:1
0:-1
1:4:1
-1:-1
4:2:1
1:-1
4:4:1
1:1
1:2:2
-1:-1
1:4:1
-1:-1
4:3:1
1:-1
1:3:1
-1:-1
1:4:1
-1:-1
0:3:1
-1:-1
3:7:1
0:-1
4:2:1
1:-1
4:2:1
1:-1
1:2:1
-1:-1
1:4:1
-1:-1
0:3:1
-1:-1
4:6:1
1:1
3:5:2
0:0
4:1:2
1:0
1:3:3
-1:-1
1:4:2
-1:-1
0:3:1
-1:-1
4:3:1
1:-1
1:6:1
-1:-1
2:5:1
0:-1
3:2:1
0:-1
1:5:1
-1:-1
1:4:1
-1:-1
0:3:1
-1:-1
1:4:1
-1:-1
1:6:1
-1:-1
0:2:1
-1:-1
1:3:1
-1:1
1:4:1
-1:-1
4:2:1
1:-1
1:9:1
-1:1
0:3:1
-1:-1
1:4:1
-1:-1
1:4:1
-1:-1
0:3:1
-1:-1
1:4:1
-1:-1
1:4:1
-1:-1
0:3:1
-1:-1
1:4:1
-1:-1
1:4:1
-1:-1
0:3:1
-1:-1
1:5:1
-1:-1
1:4:1
-1:-1
3:2:1
0:-1
1:4:1
-1:1
1:4:1
-1:-1
0:4:1
-1:-1
1:5:1
-1:-1
1:4:1
-1:-1
3:2:1
0:-1
4:2:1
1:1
1:2:2
-1:-1
1:4:1
-1:-1
0:3:1
-1:-1
1:4:1
-1:-1
1:4:1
-1:-1
4:2:1
1:-1
4:2:1
1:-1
1:2:1
-1:-1
1:4:1
-1:-1
4:3:1
1:-1
1:4:1
-1:-1
1:4:1
-1:-1
0:3:1
-1:-1
1:3:1
-1:-1
1:4:1
-1:-1
0:6:1
-1:-1
1:4:1
-1:-1
1:4:1
-1:-1
0:2:1
-1:-1
4:4:1
1:-1
1:1:1
-1:-1
1:4:1
-1:-1
0:3:1
-1:-1
1:4:1
-1:-1
1:4:1
-1:-1
5:3:1
1:-1
1:2:1
-1:-1
1:4:1
-1:-1
0:3:1
-1:-1
1:3:1
-1:-1
1:5:1
-1:-1
0:2:1
-1:-1
1:3:1
-1:-1
4:4:1
1:-1
0:3:1
-1:1
0:2:1
-1:-1
1:2:1
-1:-1
1:4:1
-1:-1
0:3:1
-1:-1
1:3:1
-1:-1
1:4:1
-1:-1
0:3:1
-1:-1
1:3:1
-1:-1
1:5:1
-1:-1
0:3:1
-1:-1
1:3:1
-1:-1
1:4:1
-1:-1
4:2:1
1:-1
4:2:1
1:-1
1:3:1
-1:-1
1:4:1
-1:-1
0:3:1
-1:-1
1:3:1
-1:-1
1:4:1
-1:-1
0:3:1
-1:-1
1:4:1
-1:-1
1:5:1
-1:-1
0:3:1
-1:-1
1:3:1
-1:-1
1:4:1
-1:-1
0:3:1
-1:-1
1:4:1
-1:-1
1:4:1
-1:-1
4:2:1
1:-1
0:5:1
-1:1
1:4:1
-1:-1
0:3:1
-1:-1
1:4:1
-1:-1
1:4:1
-1:-1
4:2:1
1:-1
4:2:1
1:1
1:2:2
-1:-1
1:4:1
-1:-1
0:3:1
-1:-1
1:4:1
-1:-1
1:4:1
-1:-1
4:2:1
1:-1
4:2:1
1:-1
1:2:1
-1:-1
1:4:1
-1:-1
4:3:1
1:-1
1:4:1
-1:-1
1:4:1
-1:-1
0:3:1
-1:-1
1:3:1
-1:-1
1:6:1
-1:-1
0:3:1
-1:-1
1:5:1
-1:-1
1:4:1
-1:-1
4:2:1
1:-1
4:3:1
1:1
3:6:2
0:1
0:6:3
-1:0
1:2:2
-1:-1
0:4:1
-1:-1
0:3:1
-1:-1
2:8:1
0:1
1:2:2
-1:-1
0:5:1
-1:-1
3:4:1
0:1
1:2:2
-1:-1
2:4:1
0:-1
0:3:1
-1:-1
1:4:1
-1:-1
1:5:1
-1:-1
4:2:1
1:-1
4:2:1
1:1
1:1:2
-1:-1
1:3:1
-1:-1
0:4:1
-1:-1
1:4:1
-1:-1
1:5:1
-1:-1
1:5:1
-1:-1
0:13:1
-1:-1
3:12:1
0:1
3:5:2
0:-1
0:1:2
-1:-1
1:3:1
-1:1
1:5:1
-1:-1
0:3:1
-1:-1
0:4:1
-1:-1
1:8:1
-1:1
1:6:1
-1:-1
0:3:1
-1:1
3:8:1
0:-1
4:11:1
1:1
2:5:2
0:0
3:4:2
0:0
1:2:2
-1:-1
1:4:1
-1:-1
1:4:1
-1:-1
4:4:1
1:-1
1:2:1
-1:-1
1:5:1
-1:-1
4:2:1
1:-1
4:3:1
1:1
1:2:2
-1:-1
1:6:1
-1:-1
3:4:1
0:-1
4:2:1
1:-1
3:13:1
0:1
4:2:2
1:-1
0:5:2
-1:-1
1:6:1
-1:-1
2:5:1
0:-1
0:16:1
-1:1
2:10:1
0:1
3:4:2
0:0
2:2:2
0:-1
2:2:2
0:-1
1:4:2
-1:-1
4:2:1
1:-1
4:2:1
1:-1
1:4:1
-1:-1
1:4:1
-1:-1
4:3:1
1:-1
1:2:1
-1:-1
1:4:1
-1:-1
0:4:1
-1:-1
0:6:1
-1:1
2:6:1
0:-1
3:5:1
0:1
1:1:2
-1:-1
4:4:1
1:-1
0:2:1
-1:-1
0:5:1
-1:1
4:5:1
1:-1
4:1:1
1:1
1:7:2
-1:-1
0:5:1
-1:1
3:3:1
0:-1
0:5:1
-1:-1
1:4:1
-1:-1
4:3:1
1:-1
0:2:1
-1:-1
1:4:1
-1:-1
0:3:1
-1:-1
0:4:1
-1:-1
1:5:1
-1:-1
4:1:1
1:-1
0:1:1
-1:-1
1:4:1
-1:1
1:4:1
-1:-1
0:3:1
-1:-1
0:4:1
-1:-1
1:6:1
-1:-1
4:3:1
1:-1
1:2:1
-1:-1
1:4:1
-1:-1
0:3:1
-1:-1
0:4:1
-1:-1
1:5:1
-1:-1
4:3:1
1:-1
1:3:1
-1:-1
1:4:1
-1:-1
4:2:1
1:-1
1:4:1
-1:1
3:6:1
0:1
3:3:2
0:0
4:2:2
1:-1
1:2:2
-1:-1
4:5:1
1:-1
0:2:1
-1:-1
0:4:1
-1:-1
0:5:1
-1:-1
4:4:1
1:-1
1:5:1
-1:-1
1:4:1
-1:-1
2:6:1
0:-1
2:2:1
0:-1
0:3:1
-1:-1
0:5:1
-1:-1
3:3:1
0:-1
1:2:1
-1:-1
1:4:1
-1:-1
0:3:1
-1:-1
0:4:1
-1:-1
1:5:1
-1:-1
4:3:1
1:-1
1:2:1
-1:-1
1:5:1
-1:-1
4:2:1
1:-1
4:3:1
1:1
0:2:2
-1:-1
1:5:1
-1:-1
0:3:1
-1:-1
1:3:1
-1:-1
1:4:1
-1:-1
0:3:1
-1:-1
0:6:1
-1:-1
1:6:1
-1:-1
3:4:1
0:-1
1:2:1
-1:-1
1:4:1
-1:-1
0:3:1
-1:-1
0:3:1
-1:-1
3:7:1
0:-1
4:2:1
1:1
1:2:2
-1:-1
1:4:1
-1:-1
5:3:1
1:-1
0:4:1
-1:-1
1:5:1
-1:-1
4:3:1
1:-1
1:2:1
-1:-1
1:4:1
-1:-1
0:3:1
-1:-1
0:3:1
-1:-1
1:6:1
-1:-1
4:2:1
1:-1
3:1:1
0:-1
1:2:1
-1:-1
1:4:1
-1:-1
0:3:1
-1:-1
0:4:1
-1:-1
1:5:1
-1:-1
4:3:1
1:-1
1:2:1
-1:-1
1:4:1
-1:-1
5:3:1
1:-1
4:9:1
1:1
4:3:2
1:-1
1:2:2
-1:-1
1:4:1
-1:-1
3:2:1
0:-1
4:2:1
1:-1
1:3:1
-1:-1
0:8:1
-1:-1
3:12:1
0:1
1:10:2
-1:0
4:2:1
1:-1
1:3:1
-1:-1
1:4:1
-1:-1
4:2:1
1:-1
0:1:1
-1:-1
1:4:1
-1:-1
1:8:1
-1:-1
3:3:1
0:-1
0:13:1
-1:-1
0:27:1
-1:-1
1:5:1
-1:1
0:3:1
-1:1
1:5:1
-1:1
4:2:1
1:-1
1:5:1
-1:-1
0:6:1
-1:-1
1:2:1
-1:-1
2:5:1
0:-1
3:2:1
0:1
1:2:2
-1:-1
2:4:1
0:-1
4:4:1
1:-1
4:2:1
1:-1
1:3:1
-1:-1
1:4:1
-1:-1
4:3:1
1:-1
1:3:1
-1:-1
1:3:1
-1:-1
0:5:1
-1:-1
0:4:1
-1:-1
3:2:1
0:-1
4:4:1
1:1
4:2:2
1:-1
1:2:2
-1:-1
1:4:1
-1:-1
4:3:1
1:-1
4:2:1
1:-1
1:3:1
-1:-1
1:4:1
-1:-1
0:3:1
-1:-1
1:8:1
-1:1
1:4:1
-1:-1
0:4:1
-1:-1
1:5:1
-1:-1
1:3:1
-1:-1
0:3:1
-1:-1
1:4:1
-1:-1
1:5:1
-1:-1
3:3:1
0:-1
3:3:1
0:1
1:2:2
-1:-1
1:4:1
-1:-1
1:4:1
-1:-1
1:5:1
-1:-1
5:3:1
1:-1
1:6:1
-1:-1
4:7:1
1:-1
4:2:1
1:-1
4:4:1
1:1
0:2:2
-1:-1
0:4:1
-1:-1
1:5:1
-1:1
0:4:1
-1:-1
0:3:1
-1:-1
1:1:1
-1:-1
1:5:1
-1:-1
3:2:1
0:-1
4:2:1
1:-1
1:3:1
-1:-1
1:4:1
-1:-1
1:6:1
-1:-1
1:5:1
-1:-1
0:3:1
-1:-1
3:6:1
0:1
4:5:2
1:0
4:1:3
1:0
0:2:4
-1:-1
1:6:3
-1:-1
4:8:2
1:-1
3:6:2
0:0
4:1:2
1:0
1:3:3
-1:-1
1:4:2
-1:-1
0:4:1
-1:-1
1:4:1
-1:-1
1:4:1
-1:-1
4:3:1
1:-1
1:5:1
-1:-1
1:5:1
-1:-1
0:2:1
-1:-1
0:2:1
-1:-1
1:4:1
-1:-1
1:5:1
-1:-1
0:2:1
-1:-1
1:3:1
-1:1
4:4:1
1:-1
3:11:1
0:1
3:3:2
0:0
1:2:2
-1:-1
1:4:1
-1:-1
4:5:1
1:-1
1:4:1
-1:-1
1:4:1
-1:-1
0:4:1
-1:-1
1:6:1
-1:1
2:2:1
0:-1
2:5:1
0:1
0:2:2
-1:-1
1:4:1
-1:-1
1:7:1
-1:-1
3:3:1
0:-1
3:1:1
0:-1
1:2:1
-1:-1
0:4:1
-1:-1
2:6:1
0:1
2:6:2
0:1
1:5:3
-1:1
0:5:3
-1:0
3:4:2
0:-1
3:1:2
0:0
4:4:2
1:0
2:2:3
0:-1
5:3:3
1:-1
6:4:3
1:0
5:2:4
1:0
1:2:5
-1:-1
5:4:4
1:-1
5:2:4
1:0
5:3:5
1:-1
4:5:5
1:-1
5:3:5
1:-1
0:2:5
-1:-1
1:4:4
-1:-1
4:2:3
1:-1
4:1:3
1:0
1:3:4
-1:-1
1:4:3
-1:-1
5:4:2
1:-1
0:2:2
-1:-1
1:5:1
-1:-1
4:3:1
1:-1
4:3:1
1:-1
0:6:1
-1:-1
3:4:1
0:-1
3:3:1
0:1
1:3:2
-1:-1
4:3:1
1:-1
0:2:1
-1:-1
1:3:1
-1:-1
0:5:1
-1:-1
3:3:1
0:-1
1:2:1
-1:-1
0:4:1
-1:-1
5:2:1
1:-1
4:4:1
1:1
1:5:2
-1:-1
1:4:1
-1:-1
3:4:1
0:-1
1:2:1
-1:-1
1:4:1
-1:-1
0:3:1
-1:-1
1:2:1
-1:-1
1:7:1
-1:-1
4:4:1
1:-1
1:2:1
-1:-1
1:4:1
-1:-1
0:2:1
-1:-1
1:3:1
-1:-1
1:4:1
-1:-1
3:3:1
0:-1
4:1:1
1:-1
1:2:1
-1:-1
4:6:1
1:-1
4:2:1
1:1
1:3:2
-1:-1
0:4:1
-1:-1
5:3:1
1:-1
1:2:1
-1:-1
0:5:1
-1:-1
0:3:1
-1:-1
1:4:1
-1:-1
1:4:1
-1:-1
3:3:1
0:-1
4:1:1
1:-1
1:2:1
-1:-1
1:4:1
-1:-1
0:3:1
-1:-1
1:4:1
-1:-1
1:4:1
-1:-1
4:4:1
1:-1
1:2:1
-1:-1
2:4:1
0:1
0:4:2
-1:0
0:2:1
-1:-1
4:4:1
1:-1
0:5:1
-1:-1
4:3:1
1:-1
1:2:1
-1:-1
4:4:1
1:-1
0:4:1
-1:-1
4:5:1
1:-1
4:3:1
1:1
4:3:2
1:-1
1:2:2
-1:-1
0:4:1
-1:-1
0:3:1
-1:-1
1:6:1
-1:-1
0:4:1
-1:-1
4:4:1
1:-1
1:2:1
-1:-1
1:4:1
-1:-1
4:2:1
1:-1
4:2:1
1:-1
1:3:1
-1:-1
1:4:1
-1:-1
3:6:1
0:-1
1:3:1
-1:-1
3:5:1
0:-1
0:4:1
-1:1
4:3:1
1:-1
3:5:1
0:1
0:2:2
-1:-1
0:3:1
-1:-1
2:5:1
0:-1
0:3:1
-1:-1
1:4:1
-1:-1
1:4:1
-1:-1
4:2:1
1:-1
1:3:1
-1:1
1:3:1
-1:-1
0:4:1
-1:-1
1:4:1
-1:-1
1:4:1
-1:-1
3:2:1
0:-1
4:2:1
1:1
1:2:2
-1:-1
0:4:1
-1:-1
4:8:1
1:1
2:13:2
0:-1
2:22:2
0:0
2:4:2
0:0
3:6:2
0:-1
0:5:2
-1:0
1:2:1
-1:-1
4:4:1
1:-1
0:1:1
-1:-1
1:4:1
-1:-1
1:4:1
-1:-1
2:5:1
0:-1
0:6:1
-1:-1
1:8:1
-1:-1
2:5:1
0:1
2:5:2
0:-1
0:2:2
-1:-1
1:6:1
-1:1
1:9:1
-1:-1
0:7:1
-1:-1
1:5:1
-1:-1
3:2:1
0:-1
0:7:1
-1:1
1:2:1
-1:-1
2:6:1
0:1
3:1:2
0:0
1:2:2
-1:-1
1:4:1
-1:-1
1:3:1
-1:-1
2:1:1
0:1
1:3:2
-1:-1
1:5:1
-1:-1
4:4:1
1:-1
0:13:1
-1:1
3:3:1
0:-1
1:2:1
-1:-1
1:4:1
-1:-1
0:15:1
-1:-1
0:6:1
-1:1
3:2:1
0:-1
0:2:1
-1:-1
2:3:1
0:-1
1:4:1
-1:-1
1:3:1
-1:-1
0:4:1
-1:-1
4:2:1
1:-1
3:4:1
0:1
0:2:2
-1:-1
1:3:1
-1:-1
1:4:1
-1:-1
4:2:1
1:-1
4:2:1
1:1
4:6:2
1:0
4:5:3
1:0
1:4:4
-1:-1
0:5:3
-1:-1
0:5:2
-1:-1
1:5:1
-1:1
1:5:1
-1:-1
0:2:1
-1:-1
1:4:1
-1:1
1:6:1
-1:-1
0:3:1
-1:-1
1:5:1
-1:-1
1:4:1
-1:-1
4:2:1
1:-1
4:1:1
1:1
1:2:2
-1:-1
1:6:1
-1:-1
0:3:1
-1:-1
1:5:1
-1:-1
1:4:1
-1:-1
0:2:1
-1:-1
1:6:1
-1:-1
1:5:1
-1:-1
0:3:1
-1:-1
1:4:1
-1:-1
1:5:1
-1:-1
4:2:1
1:-1
4:2:1
1:1
1:1:2
-1:-1
1:5:1
-1:-1
0:3:1
-1:-1
1:4:1
-1:-1
1:4:1
-1:-1
4:3:1
1:-1
1:2:1
-1:-1
1:5:1
-1:-1
4:2:1
1:-1
0:1:1
-1:-1
1:4:1
-1:-1
1:4:1
-1:-1
5:3:1
1:-1
1:2:1
-1:-1
1:5:1
-1:-1
4:2:1
1:-1
4:2:1
1:-1
1:3:1
-1:-1
1:5:1
-1:-1
0:4:1
-1:-1
1:3:1
-1:-1
1:5:1
-1:-1
0:8:1
-1:-1
0:4:1
-1:-1
0:4:1
-1:-1
4:3:1
1:-1
1:3:1
-1:-1
1:5:1
-1:-1
4:2:1
1:-1
4:2:1
1:-1
1:4:1
-1:-1
1:4:1
-1:-1
4:3:1
1:-1
1:2:1
-1:-1
1:5:1
-1:-1
0:4:1
-1:-1
1:6:1
-1:-1
0:8:1
-1:1
2:5:1
0:-1
3:2:1
0:-1
3:6:1
0:1
0:2:2
-1:-1
4:4:1
1:-1
3:7:1
0:1
4:2:2
1:0
4:2:3
1:0
3:7:4
0:0
0:2:4
-1:-1
4:3:3
1:-1
3:4:3
0:0
3:2:3
0:-1
0:3:3
-1:-1
4:6:2
1:-1
0:2:2
-1:-1
1:4:1
-1:-1
0:4:1
-1:-1
4:2:1
1:-1
5:1:1
1:1
1:2:2
-1:-1
1:6:1
-1:-1
0:3:1
-1:-1
1:3:1
-1:-1
1:5:1
-1:-1
4:3:1
1:-1
1:2:1
-1:-1
2:5:1
0:1
4:3:2
1:-1
4:2:2
1:0
4:3:3
1:-1
3:4:3
0:0
4:2:3
1:0
0:2:4
-1:-1
4:5:3
1:-1
2:9:3
0:0
2:7:3
0:0
4:1:3
1:-1
0:4:3
-1:-1
3:5:2
0:-1
0:2:2
-1:-1
1:5:1
-1:-1
0:4:1
-1:-1
2:20:1
0:1
2:10:2
0:0
3:4:2
0:0
1:2:2
-1:-1
1:4:1
-1:-1
0:7:1
-1:-1
0:23:1
-1:-1
1:7:1
-1:1
2:2:1
0:1
0:3:2
-1:-1
4:2:1
1:-1
0:3:1
-1:-1
1:5:1
-1:-1
0:4:1
-1:-1
4:3:1
1:1
5:1:2
1:0
1:2:3
-1:-1
2:4:2
0:-1
0:4:2
-1:-1
0:5:1
-1:-1
3:2:1
0:-1
3:4:1
0:1
3:4:2
0:0
1:2:2
-1:-1
0:3:1
-1:-1
1:7:1
-1:1
0:6:1
-1:1
3:2:1
0:-1
3:5:1
0:1
3:4:2
0:-1
3:2:2
0:-1
4:4:2
1:0
0:2:3
-1:-1
0:5:2
-1:-1
1:4:1
-1:-1
3:4:1
0:-1
3:4:1
0:1
1:1:2
-1:-1
1:5:1
-1:-1
0:3:1
-1:-1
0:5:1
-1:-1
3:4:1
0:-1
3:2:1
0:-1
4:2:1
1:-1
1:3:1
-1:-1
1:7:1
-1:-1
0:3:1
-1:-1
1:5:1
-1:-1
1:5:1
-1:-1
1:9:1
-1:1
4:2:1
1:-1
4:3:1
1:1
1:2:2
-1:-1
3:6:1
0:-1
1:4:1
-1:1
4:4:1
1:-1
0:2:1
-1:-1
0:5:1
-1:-1
1:5:1
-1:1
4:3:1
1:-1
2:3:1
0:-1
1:4:1
-1:-1
0:3:1
-1:-1
1:4:1
-1:-1
4:5:1
1:-1
1:4:1
-1:1
4:4:1
1:-1
3:11:1
0:1
4:4:2
1:1
3:10:3
0:0
2:5:3
0:0
3:1:3
0:0
1:3:3
-1:-1
1:4:2
-1:-1
0:4:1
-1:-1
1:4:1
-1:-1
1:5:1
-1:-1
1:4:1
-1:-1
1:6:1
-1:-1
1:4:1
-1:-1
3:4:1
0:-1
3:2:1
0:-1
1:5:1
-1:-1
1:4:1
-1:-1
0:3:1
-1:-1
2:9:1
0:1
3:9:2
0:1
2:2:3
0:0
1:2:3
-1:-1
1:4:2
-1:-1
3:2:1
0:-1
0:1:1
-1:-1
1:4:1
-1:-1
1:5:1
-1:-1
0:3:1
-1:-1
1:4:1
-1:-1
1:4:1
-1:-1
4:2:1
1:-1
4:2:1
1:-1
1:3:1
-1:-1
1:4:1
-1:-1
0:3:1
-1:-1
1:3:1
-1:-1
1:4:1
-1:-1
0:4:1
-1:-1
1:4:1
-1:-1
1:5:1
-1:-1
0:3:1
-1:-1
1:3:1
-1:-1
1:4:1
-1:-1
4:2:1
1:-1
4:2:1
1:-1
1:3:1
-1:-1
1:4:1
-1:-1
0:3:1
-1:-1
1:3:1
-1:-1
1:4:1
-1:-1
0:3:1
-1:-1
1:4:1
-1:-1
1:4:1
-1:-1
0:4:1
-1:-1
1:3:1
-1:-1
1:4:1
-1:-1
0:3:1
-1:-1
1:4:1
-1:-1
1:4:1
-1:-1
4:2:1
1:-1
0:4:1
-1:1
1:2:1
-1:-1
4:4:1
1:-1
0:3:1
-1:-1
1:4:1
-1:-1
1:4:1
-1:-1
4:2:1
1:-1
4:2:1
1:1
1:2:2
-1:-1
1:4:1
-1:-1
0:3:1
-1:-1
1:3:1
-1:-1
1:5:1
-1:-1
2:2:1
0:-1
4:2:1
1:-1
1:5:1
-1:-1
3:4:1
0:-1
4:2:1
1:1
1:4:2
-1:-1
4:4:1
1:-1
5:3:1
1:-1
1:2:1
-1:-1
4:5:1
1:-1
0:2:1
-1:-1
1:3:1
-1:-1
0:5:1
-1:-1
4:2:1
1:-1
4:3:1
1:1
1:1:2
-1:-1
1:4:1
-1:-1
0:3:1
-1:-1
1:5:1
-1:-1
1:4:1
-1:-1
0:3:1
-1:-1
1:3:1
-1:-1
1:4:1
-1:-1
4:2:1
1:-1
0:1:1
-1:-1
1:4:1
-1:-1
1:4:1
-1:-1
0:3:1
-1:-1
1:3:1
-1:-1
1:4:1
-1:-1
4:2:1
1:-1
4:3:1
1:-1
1:3:1
-1:-1
1:4:1
-1:-1
0:3:1
-1:-1
1:3:1
-1:-1
1:4:1
-1:-1
0:3:1
-1:-1
1:4:1
-1:-1
1:4:1
-1:-1
0:3:1
-1:-1
1:3:1
-1:-1
1:4:1
-1:-1
4:2:1
1:-1
4:2:1
1:-1
1:5:1
-1:-1
1:4:1
-1:-1
0:3:1
-1:-1
1:3:1
-1:-1
1:4:1
-1:-1
0:3:1
-1:-1
1:3:1
-1:-1
1:4:1
-1:-1
5:3:1
1:-1
1:2:1
-1:-1
1:4:1
-1:-1
0:3:1
-1:-1
1:3:1
-1:-1
1:4:1
-1:-1
4:2:1
1:-1
3:2:1
0:-1
1:2:1
-1:-1
1:4:1
-1:-1
0:3:1
-1:-1
1:4:1
-1:-1
1:4:1
-1:-1
4:2:1
1:-1
4:2:1
1:1
1:2:2
-1:-1
5:3:1
1:-1
0:3:1
-1:-1
1:4:1
-1:-1
0:4:1
-1:-1
4:3:1
1:1
4:1:2
1:-1
1:2:2
-1:-1
2:4:1
0:-1
4:3:1
1:-1
1:4:1
-1:-1
1:4:1
-1:-1
0:3:1
-1:-1
1:3:1
-1:-1
1:3:1
-1:-1
0:4:1
-1:-1
1:4:1
-1:-1
1:4:1
-1:-1
4:2:1
1:-1
4:3:1
1:1
1:2:2
-1:-1
1:4:1
-1:-1
0:4:1
-1:-1
1:4:1
-1:-1
1:4:1
-1:-1
1:3:1
-1:1
2:8:1
0:-1
3:9:1
0:-1
2:17:1
0:-1
1:4:1
-1:1
2:1:1
0:1
1:2:2
-1:-1
1:4:1
-1:-1
0:5:1
-1:-1
1:5:1
-1:-1
1:4:1
-1:-1
4:2:1
1:-1
1:3:1
-1:-1
1:5:1
-1:-1
4:5:1
1:-1
1:5:1
-1:-1
0:8:1
-1:-1
2:6:1
0:-1
0:2:1
-1:-1
1:5:1
-1:-1
3:5:1
0:-1
4:8:1
1:1
1:8:2
-1:1
0:2:2
-1:-1
4:5:1
1:1
1:2:2
-1:-1
1:4:1
-1:-1
4:3:1
1:-1
1:3:1
-1:-1
1:4:1
-1:-1
0:4:1
-1:-1
1:6:1
-1:-1
1:4:1
-1:-1
1:4:1
-1:-1
3:4:1
0:-1
4:13:1
1:1
4:5:2
1:0
1:3:3
-1:-1
0:4:2
-1:-1
4:5:1
1:-1
0:15:1
-1:-1
0:8:1
-1:-1
4:4:1
1:-1
2:2:1
0:-1
1:4:1
-1:-1
0:3:1
-1:-1
0:4:1
-1:-1
1:5:1
-1:-1
4:3:1
1:-1
1:2:1
-1:-1
1:4:1
-1:-1
4:2:1
1:-1
5:3:1
1:1
3:6:2
0:0
2:4:2
0:0
0:4:2
-1:0
4:5:1
1:-1
0:2:1
-1:-1
1:5:1
-1:1
0:4:1
-1:-1
0:2:1
-1:-1
1:3:1
-1:1
0:4:1
-1:-1
0:3:1
-1:-1
1:4:1
-1:-1
1:4:1
-1:-1
4:3:1
1:-1
4:2:1
1:-1
1:2:1
-1:-1
1:4:1
-1:-1
0:3:1
-1:-1
1:5:1
-1:-1
1:4:1
-1:-1
4:3:1
1:-1
1:4:1
-1:-1
1:4:1
-1:-1
0:4:1
-1:-1
1:4:1
-1:-1
1:4:1
-1:-1
4:4:1
1:-1
1:3:1
-1:-1
1:4:1
-1:-1
4:3:1
1:-1
0:4:1
-1:1
3:2:1
0:-1
4:4:1
1:1
4:3:2
1:-1
1:2:2
-1:-1
1:4:1
-1:-1
4:3:1
1:-1
0:2:1
-1:-1
1:4:1
-1:-1
1:4:1
-1:-1
4:4:1
1:-1
1:3:1
-1:-1
1:4:1
-1:-1
4:2:1
1:-1
3:5:1
0:-1
1:2:1
-1:-1
1:4:1
-1:-1
3:4:1
0:-1
1:2:1
-1:-1
1:4:1
-1:-1
0:7:1
-1:-1
1:3:1
-1:-1
1:4:1
-1:-1
4:4:1
1:-1
1:2:1
-1:-1
1:4:1
-1:-1
4:2:1
1:-1
4:3:1
1:1
1:2:2
-1:-1
1:4:1
-1:-1
0:4:1
-1:-1
1:3:1
-1:-1
1:4:1
-1:-1
0:3:1
-1:-1
1:4:1
-1:-1
1:4:1
-1:-1
4:4:1
1:-1
1:2:1
-1:-1
1:4:1
-1:-1
0:3:1
-1:-1
1:4:1
-1:-1
1:4:1
-1:-1
4:3:1
1:-1
4:1:1
1:-1
1:2:1
-1:-1
1:4:1
-1:-1
4:3:1
1:-1
1:3:1
-1:-1
1:5:1
-1:-1
3:4:1
0:-1
1:2:1
-1:-1
1:4:1
-1:-1
0:3:1
-1:-1
1:5:1
-1:-1
1:4:1
-1:-1
3:3:1
0:-1
4:1:1
1:-1
1:2:1
-1:-1
1:4:1
-1:-1
0:3:1
-1:-1
1:3:1
-1:-1
1:5:1
-1:-1
4:4:1
1:-1
1:2:1
-1:-1
1:4:1
-1:-1
0:3:1
-1:-1
0:4:1
-1:-1
1:5:1
-1:-1
4:4:1
1:-1
1:2:1
-1:-1
1:5:1
-1:-1
0:3:1
-1:-1
1:5:1
-1:-1
4:4:1
1:-1
4:2:1
1:1
1:2:2
-1:-1
1:4:1
-1:-1
0:3:1
-1:-1
1:6:1
-1:-1
1:4:1
-1:-1
0:3:1
-1:-1
2:18:1
0:1
1:10:2
-1:0
0:4:1
-1:-1
2:3:1
0:1
3:4:2
0:0
1:2:2
-1:-1
1:4:1
-1:-1
0:5:1
-1:-1
0:23:1
-1:-1
2:6:1
0:1
0:3:2
-1:0
3:3:1
0:-1
0:4:1
-1:-1
1:4:1
-1:-1
3:6:1
0:-1
3:2:1
0:1
1:2:2
-1:-1
2:4:1
0:-1
0:6:1
-1:-1
1:4:1
-1:-1
1:4:1
-1:-1
3:2:1
0:-1
3:1:1
0:-1
1:3:1
-1:-1
1:3:1
-1:-1
2:5:1
0:-1
1:6:1
-1:-1
1:4:1
-1:-1
4:2:1
1:-1
1:2:1
-1:-1
1:4:1
-1:-1
0:4:1
-1:-1
1:4:1
-1:-1
1:4:1
-1:-1
3:4:1
0:-1
2:5:1
0:1
0:5:2
-1:-1
0:4:1
-1:-1
0:5:1
-1:-1
1:4:1
-1:-1
1:3:1
-1:-1
4:3:1
1:-1
1:2:1
-1:-1
1:5:1
-1:-1
0:4:1
-1:-1
1:3:1
-1:-1
1:4:1
-1:-1
0:3:1
-1:-1
4:2:1
1:-1
0:4:1
-1:-1
4:3:1
1:-1
0:3:1
-1:-1
1:4:1
-1:-1
1:4:1
-1:-1
0:3:1
-1:-1
4:4:1
1:1
4:4:2
1:0
0:2:3
-1:-1
0:4:2
-1:-1
1:5:1
-1:1
4:3:1
1:-1
2:2:1
0:-1
1:4:1
-1:-1
4:2:1
1:-1
4:5:1
1:-1
1:2:1
-1:-1
1:4:1
-1:-1
4:3:1
1:-1
1:2:1
-1:-1
1:4:1
-1:-1
0:4:1
-1:-1
1:3:1
-1:-1
1:8:1
-1:1
4:3:1
[...]
-1:-1
3:5:1
0:-1
1:4:1
-1:1
3:2:1
0:-1
3:4:1
0:1
4:2:2
1:-1
4:2:2
1:-1
4:4:2
1:0
0:2:3
-1:-1
5:4:2
1:-1
4:4:2
1:-1
5:1:2
1:0
0:3:3
-1:-1
1:4:2
-1:-1
4:3:1
1:-1
4:2:1
1:-1
1:4:1
-1:-1
1:4:1
-1:-1
3:4:1
0:-1
0:2:1
-1:-1
1:5:1
-1:-1
0:3:1
-1:-1
1:4:1
-1:-1
1:4:1
-1:-1
5:3:1
1:-1
1:3:1
-1:-1
1:4:1
-1:-1
4:2:1
1:-1
4:3:1
1:1
1:2:2
-1:-1
1:5:1
-1:1
0:6:1
-1:1
3:1:1
0:-1
0:2:1
-1:-1
1:6:1
-1:-1
0:3:1
-1:-1
4:4:1
1:-1
3:6:1
0:1
0:2:2
-1:-1
0:7:1
-1:1
1:4:1
-1:-1
0:5:1
-1:-1
0:5:1
-1:-1
3:4:1
0:-1
4:2:1
1:1
1:3:2
-1:-1
1:4:1
-1:-1
5:3:1
1:-1
1:4:1
-1:-1
1:4:1
-1:-1
4:4:1
1:-1
0:2:1
-1:-1
1:5:1
-1:-1
0:3:1
-1:-1
1:4:1
-1:-1
1:4:1
-1:-1
4:2:1
1:-1
4:1:1
1:-1
0:2:1
-1:-1
1:5:1
-1:-1
0:3:1
-1:-1
1:4:1
-1:-1
1:4:1
-1:-1
5:3:1
1:-1
0:2:1
-1:-1
1:5:1
-1:-1
0:3:1
-1:-1
1:4:1
-1:-1
1:5:1
-1:-1
4:3:1
1:-1
0:2:1
-1:-1
1:5:1
-1:-1
5:2:1
1:-1
0:4:1
-1:1
4:2:1
1:-1
4:4:1
1:1
5:2:2
1:-1
1:3:2
-1:-1
1:4:1
-1:-1
4:2:1
1:-1
0:1:1
-1:-1
1:3:1
-1:-1
1:5:1
-1:-1
5:3:1
1:-1
0:2:1
-1:-1
1:5:1
-1:-1
4:2:1
1:-1
4:2:1
1:-1
1:3:1
-1:-1
0:4:1
-1:-1
4:4:1
1:-1
0:2:1
-1:-1
4:5:1
1:-1
0:10:1
-1:1
4:3:1
1:-1
4:2:1
1:1
1:2:2
-1:-1
1:4:1
-1:-1
0:3:1
-1:-1
1:5:1
-1:-1
1:4:1
-1:-1
4:2:1
1:-1
0:10:1
-1:-1
2:20:1
0:1
0:7:2
-1:0
1:11:1
-1:1
1:5:1
-1:-1
0:3:1
-1:-1
1:4:1
-1:-1
1:6:1
-1:-1
0:5:1
-1:-1
0:22:1
-1:1
0:7:1
-1:1
0:4:1
-1:-1
5:4:1
1:1
1:3:2
-1:-1
2:3:1
0:-1
4:2:1
1:-1
4:3:1
1:-1
1:4:1
-1:-1
4:4:1
1:-1
4:2:1
1:1
1:2:2
-1:-1
1:3:1
-1:-1
0:5:1
-1:-1
1:4:1
-1:-1
1:4:1
-1:-1
4:4:1
1:-1
1:3:1
-1:-1
1:4:1
-1:-1
4:3:1
1:-1
4:3:1
1:1
1:2:2
-1:-1
1:4:1
-1:-1
3:5:1
0:-1
1:2:1
-1:-1
1:4:1
-1:-1
0:4:1
-1:-1
1:4:1
-1:-1
1:4:1
-1:-1
4:2:1
1:-1
4:1:1
1:1
1:2:2
-1:-1
1:5:1
-1:-1
0:4:1
-1:-1
1:4:1
-1:-1
1:4:1
-1:-1
4:2:1
1:-1
4:2:1
1:-1
1:2:1
-1:-1
1:4:1
-1:-1
4:4:1
1:-1
1:4:1
-1:-1
1:4:1
-1:-1
4:3:1
1:-1
4:2:1
1:-1
4:4:1
1:1
0:3:2
-1:-1
0:4:1
-1:-1
1:5:1
-1:1
3:2:1
0:-1
4:1:1
1:-1
2:2:1
0:-1
1:4:1
-1:-1
0:4:1
-1:-1
1:5:1
-1:-1
1:4:1
-1:-1
0:3:1
-1:-1
1:3:1
-1:-1
1:4:1
-1:-1
5:4:1
1:-1
1:4:1
-1:-1
1:5:1
-1:-1
4:3:1
1:-1
1:3:1
-1:-1
1:4:1
-1:-1
4:2:1
1:-1
1:6:1
-1:1
1:5:1
-1:-1
0:2:1
-1:-1
1:4:1
-1:-1
1:4:1
-1:-1
0:4:1
-1:-1
1:5:1
-1:-1
1:4:1
-1:-1
0:3:1
-1:-1
1:6:1
-1:-1
1:4:1
-1:-1
3:2:1
0:-1
3:3:1
0:1
1:3:2
-1:-1
1:4:1
-1:-1
0:2:1
-1:-1
1:3:1
-1:1
1:13:1
-1:1
0:3:1
-1:-1
1:3:1
-1:-1
1:4:1
-1:-1
0:5:1
-1:-1
1:4:1
-1:-1
1:4:1
-1:-1
4:3:1
1:-1
1:2:1
-1:-1
1:4:1
-1:-1
4:4:1
1:-1
4:2:1
1:-1
1:3:1
-1:-1
1:4:1
-1:-1
4:3:1
1:-1
1:2:1
-1:-1
1:4:1
-1:-1
0:3:1
-1:-1
1:4:1
-1:-1
1:4:1
-1:-1
0:3:1
-1:-1
1:3:1
-1:-1
1:4:1
-1:-1
0:3:1
-1:-1
1:4:1
-1:-1
1:4:1
-1:-1
4:3:1
1:-1
1:3:1
-1:-1
1:4:1
-1:-1
0:3:1
-1:-1
1:4:1
-1:-1
1:5:1
-1:-1
4:3:1
1:-1
1:3:1
-1:-1
1:4:1
-1:-1
0:4:1
-1:-1
1:4:1
-1:-1
1:4:1
-1:-1
4:2:1
1:-1
0:3:1
-1:1
1:5:1
-1:-1
4:3:1
1:-1
1:4:1
-1:-1
1:4:1
-1:-1
5:3:1
1:-1
0:2:1
-1:-1
1:5:1
-1:-1
0:3:1
-1:-1
1:3:1
-1:-1
1:5:1
-1:-1
2:2:1
0:-1
4:1:1
1:-1
0:2:1
-1:-1
1:5:1
-1:-1
0:3:1
-1:-1
1:4:1
-1:-1
1:4:1
-1:-1
5:3:1
1:-1
0:2:1
-1:-1
1:5:1
-1:-1
0:3:1
-1:-1
1:3:1
-1:-1
1:6:1
-1:-1
3:3:1
0:-1
0:2:1
-1:-1
1:5:1
-1:-1
4:2:1
1:-1
0:4:1
-1:1
4:2:1
1:-1
3:7:1
0:1
4:2:2
1:-1
1:3:2
-1:-1
1:4:1
-1:-1
3:2:1
0:-1
0:1:1
-1:-1
1:4:1
-1:-1
1:5:1
-1:-1
4:3:1
1:-1
0:2:1
-1:-1
1:5:1
-1:1
4:3:1
1:-1
4:2:1
1:-1
1:3:1
-1:-1
1:4:1
-1:-1
0:3:1
-1:-1
1:3:1
-1:-1
1:4:1
-1:-1
0:3:1
-1:-1
1:5:1
-1:-1
1:4:1
-1:-1
4:3:1
1:-1
1:2:1
-1:-1
1:4:1
-1:-1
4:2:1
1:-1
5:3:1
1:1
1:2:2
-1:-1
1:4:1
-1:-1
4:3:1
1:-1
0:2:1
-1:-1
1:5:1
-1:-1
0:3:1
-1:-1
1:4:1
-1:-1
1:4:1
-1:-1
0:3:1
-1:-1
0:3:1
-1:-1
1:5:1
-1:-1
0:3:1
-1:-1
1:4:1
-1:-1
1:4:1
-1:-1
4:2:1
1:-1
4:1:1
1:-1
0:2:1
-1:-1
1:5:1
-1:-1
4:3:1
1:-1
1:4:1
-1:-1
1:4:1
-1:-1
5:3:1
1:-1
0:2:1
-1:-1
4:4:1
1:-1
0:3:1
-1:-1
1:4:1
-1:-1
0:4:1
-1:-1
4:3:1
1:1
3:3:2
0:-1
0:6:2
-1:-1
1:4:1
-1:-1
0:5:1
-1:-1
0:4:1
-1:1
1:3:1
-1:-1
4:3:1
1:-1
0:2:1
-1:-1
1:3:1
-1:-1
0:4:1
-1:-1
3:4:1
0:-1
4:4:1
1:1
5:2:2
1:0
0:3:3
-1:-1
1:5:2
-1:-1
4:3:1
1:-1
0:4:1
-1:1
3:2:1
0:-1
4:4:1
1:1
0:2:2
-1:-1
4:10:1
1:-1
4:7:1
1:1
3:3:2
0:0
2:16:2
0:1
1:4:3
-1:-1
1:3:2
-1:-1
0:14:1
-1:1
1:6:1
-1:1
0:5:1
-1:1
Heartbeat CPU 0 instructions: 10000001 cycles: 13592178 heartbeat IPC: 0.735717 cumulative IPC: 0.687462 (Simulation time: 0 hr 0 min 41 sec) 
3:6:1
0:-1
0:2:1
-1:-1
1:4:1
-1:-1
1:5:1
-1:1
4:2:1
1:-1
4:3:1
1:1
4:5:2
1:0
0:2:3
-1:-1
0:4:2
-1:-1
1:8:1
-1:-1
2:3:1
0:-1
0:6:1
-1:1
0:7:1
-1:-1
3:12:1
0:1
1:3:2
-1:0
4:2:1
1:-1
1:3:1
-1:-1
1:4:1
-1:-1
4:3:1
1:-1
1:3:1
-1:-1
1:4:1
-1:-1
0:3:1
-1:-1
5:4:1
1:-1
2:10:1
0:-1
2:27:1
0:1
2:10:2
0:1
2:6:3
0:0
2:2:3
0:-1
0:2:3
-1:-1
1:5:2
-1:-1
4:2:1
1:-1
4:2:1
1:-1
1:3:1
-1:-1
1:5:1
-1:-1
3:5:1
0:-1
1:3:1
-1:-1
1:4:1
-1:-1
4:3:1
1:-1
1:5:1
-1:-1
1:5:1
-1:-1
4:3:1
1:-1
1:2:1
-1:-1
1:4:1
-1:-1
4:2:1
1:-1
4:4:1
1:1
1:2:2
-1:-1
1:5:1
-1:-1
4:3:1
1:-1
1:4:1
-1:-1
1:4:1
-1:-1
0:3:1
-1:-1
1:4:1
-1:-1
1:5:1
-1:-1
4:3:1
1:-1
1:3:1
-1:-1
1:4:1
-1:-1
0:3:1
-1:-1
1:8:1
-1:-1
0:5:1
-1:-1
2:2:1
0:-1
1:5:1
-1:1
1:4:1
-1:-1
0:4:1
-1:-1
0:5:1
-1:1
1:6:1
-1:-1
3:2:1
0:-1
4:1:1
1:1
1:2:2
-1:-1
1:4:1
-1:-1
0:3:1
-1:-1
1:5:1
-1:-1
1:5:1
-1:-1
3:2:1
0:-1
4:1:1
1:-1
1:2:1
-1:-1
1:4:1
-1:-1
4:3:1
1:-1
1:4:1
-1:-1
1:6:1
-1:-1
4:3:1
1:-1
1:2:1
-1:-1
1:4:1
-1:-1
0:3:1
-1:-1
1:4:1
-1:-1
1:5:1
-1:-1
4:2:1
1:-1
4:2:1
1:1
1:3:2
-1:-1
1:4:1
-1:1
3:6:1
0:1
2:4:2
0:0
2:4:2
0:0
3:5:2
0:0
4:2:2
1:-1
4:2:2
1:-1
4:4:2
1:0
0:2:3
-1:-1
0:5:2
-1:-1
1:5:1
-1:-1
4:3:1
1:-1
1:2:1
-1:-1
1:4:1
-1:-1
4:2:1
1:-1
4:2:1
1:-1
1:3:1
-1:-1
1:6:1
-1:-1
4:3:1
1:-1
1:2:1
-1:-1
1:5:1
-1:-1
0:3:1
-1:-1
1:4:1
-1:-1
1:5:1
-1:-1
4:3:1
1:-1
1:2:1
-1:-1
0:4:1
-1:-1
4:4:1
1:-1
0:3:1
-1:-1
1:2:1
-1:-1
3:7:1
0:-1
3:2:1
0:1
1:2:2
-1:-1
4:4:1
1:-1
0:2:1
-1:-1
1:4:1
-1:-1
0:5:1
-1:-1
5:3:1
1:-1
1:2:1
-1:-1
1:4:1
-1:-1
0:3:1
-1:-1
1:3:1
-1:-1
1:6:1
-1:-1
4:2:1
1:-1
1:3:1
-1:1
1:4:1
-1:-1
4:3:1
1:-1
1:4:1
-1:-1
1:5:1
-1:-1
4:2:1
1:-1
4:1:1
1:1
4:3:2
1:-1
4:13:2
1:0
0:2:3
-1:-1
1:3:2
-1:-1
1:5:1
-1:-1
3:2:1
0:-1
4:2:1
1:-1
1:4:1
-1:-1
0:16:1
-1:-1
2:14:1
0:1
3:3:2
0:0
4:2:2
1:0
1:5:3
-1:-1
0:6:2
-1:-1
0:25:1
-1:1
0:3:1
-1:-1
0:5:1
-1:-1
3:5:1
0:1
1:3:2
-1:-1
2:4:1
0:-1
3:2:1
0:-1
4:3:1
1:1
1:2:2
-1:-1
1:4:1
-1:-1
4:4:1
1:-1
1:2:1
-1:-1
1:3:1
-1:-1
0:4:1
-1:-1
0:5:1
-1:1
3:2:1
0:-1
0:4:1
-1:-1
4:3:1
1:-1
1:2:1
-1:-1
1:4:1
-1:-1
0:3:1
-1:-1
1:5:1
-1:-1
1:4:1
-1:-1
3:3:1
0:-1
1:4:1
-1:1
1:5:1
-1:-1
4:4:1
1:-1
1:4:1
-1:-1
1:3:1
-1:-1
0:5:1
-1:-1
1:3:1
-1:-1
1:5:1
-1:-1
0:3:1
-1:-1
1:4:1
-1:-1
1:4:1
-1:-1
4:3:1
1:-1
4:1:1
1:-1
1:3:1
-1:-1
1:4:1
-1:-1
0:3:1
-1:-1
1:3:1
-1:-1
1:4:1
-1:-1
0:4:1
-1:-1
4:3:1
1:-1
4:4:1
1:1
0:2:2
-1:-1
0:4:1
-1:-1
1:6:1
-1:1
3:3:1
0:-1
3:2:1
0:1
2:2:2
0:-1
1:4:2
-1:-1
0:3:1
-1:-1
1:4:1
-1:-1
1:4:1
-1:-1
0:4:1
-1:-1
1:3:1
-1:-1
1:4:1
-1:-1
4:2:1
1:-1
4:1:1
1:1
1:3:2
-1:-1
1:4:1
-1:-1
5:4:1
1:-1
1:2:1
-1:-1
1:4:1
-1:-1
0:2:1
-1:-1
0:8:1
-1:-1
3:4:1
0:-1
0:1:1
-1:-1
1:4:1
-1:1
1:4:1
-1:-1
0:4:1
-1:-1
1:5:1
-1:-1
1:4:1
-1:-1
0:3:1
-1:-1
1:5:1
-1:-1
1:4:1
-1:-1
0:3:1
-1:-1
1:4:1
-1:-1
1:4:1
-1:-1
4:1:1
1:-1
0:4:1
-1:1
1:1:1
-1:-1
5:5:1
1:-1
4:11:1
1:1
5:1:2
1:0
1:2:3
-1:-1
2:4:2
0:-1
3:2:2
0:-1
0:2:2
-1:-1
1:4:1
-1:-1
1:5:1
-1:-1
0:3:1
-1:-1
1:3:1
-1:-1
1:4:1
-1:-1
4:2:1
1:-1
3:5:1
0:-1
1:3:1
-1:-1
1:4:1
-1:-1
0:3:1
-1:-1
1:3:1
-1:-1
1:4:1
-1:-1
0:3:1
-1:-1
0:4:1
-1:-1
4:2:1
1:-1
3:4:1
0:1
4:2:2
1:-1
1:2:2
-1:-1
1:4:1
-1:-1
0:4:1
-1:-1
1:5:1
-1:-1
1:4:1
-1:-1
4:3:1
1:-1
1:2:1
-1:-1
1:4:1
-1:-1
0:3:1
-1:-1
1:5:1
-1:-1
1:4:1
-1:-1
4:2:1
1:-1
4:1:1
1:1
1:2:2
-1:-1
1:4:1
-1:-1
0:3:1
-1:-1
0:5:1
-1:-1
4:2:1
1:-1
3:4:1
0:1
4:2:2
1:-1
1:2:2
-1:-1
1:4:1
-1:-1
5:3:1
1:-1
1:5:1
-1:-1
1:4:1
-1:-1
4:3:1
1:-1
1:2:1
-1:-1
1:4:1
-1:-1
0:3:1
-1:-1
1:4:1
-1:-1
1:5:1
-1:-1
2:2:1
0:-1
3:2:1
0:1
1:3:2
-1:-1
1:4:1
-1:-1
0:3:1
-1:-1
1:4:1
-1:-1
1:6:1
-1:-1
2:3:1
0:-1
1:3:1
-1:-1
1:6:1
-1:1
2:6:1
0:1
0:1:2
-1:-1
0:3:1
-1:-1
2:5:1
0:1
3:2:2
0:0
4:2:2
1:0
5:4:3
1:0
0:5:4
-1:-1
1:5:3
-1:-1
0:3:2
-1:-1
3:6:1
0:-1
4:2:1
1:1
4:3:2
1:0
0:2:3
-1:-1
0:6:2
-1:-1
3:5:1
0:-1
4:2:1
1:-1
1:2:1
-1:-1
0:4:1
-1:-1
4:2:1
1:-1
5:2:1
1:-1
1:4:1
-1:-1
1:4:1
-1:-1
4:3:1
1:-1
1:2:1
-1:-1
1:4:1
-1:-1
0:3:1
-1:-1
1:5:1
-1:-1
1:4:1
-1:-1
4:4:1
1:-1
4:2:1
1:-1
4:4:1
1:1
0:2:2
-1:-1
0:5:1
-1:-1
1:4:1
-1:-1
4:2:1
1:-1
1:3:1
-1:1
3:4:1
0:1
3:5:2
0:0
0:2:2
-1:-1
1:5:1
-1:-1
3:4:1
0:-1
4:2:1
1:-1
1:2:1
-1:-1
5:4:1
1:-1
0:2:1
-1:-1
1:5:1
-1:-1
0:4:1
-1:-1
4:2:1
1:-1
4:1:1
1:-1
1:2:1
-1:-1
1:4:1
-1:-1
5:3:1
1:-1
1:5:1
-1:-1
1:4:1
-1:-1
4:3:1
1:-1
1:2:1
-1:-1
4:3:1
1:-1
0:4:1
-1:-1
1:5:1
-1:-1
0:4:1
-1:-1
4:3:1
1:1
3:2:2
0:0
1:1:2
-1:-1
2:4:1
0:-1
0:6:1
-1:-1
2:8:1
0:-1
2:5:1
0:1
3:2:2
0:-1
1:2:2
-1:-1
0:3:1
-1:-1
0:3:1
-1:1
3:5:1
0:-1
4:4:1
1:1
4:4:2
1:0
0:2:3
-1:-1
0:5:2
-1:-1
3:4:1
0:1
3:2:2
0:-1
1:4:2
-1:-1
1:4:1
-1:-1
4:3:1
1:-1
3:5:1
0:1
0:8:2
-1:0
1:4:1
-1:-1
0:4:1
-1:-1
2:3:1
0:-1
3:1:1
0:1
1:13:2
-1:-1
0:6:1
-1:-1
0:5:1
-1:-1
3:2:1
0:-1
3:2:1
0:-1
1:12:1
-1:-1
2:6:1
0:-1
2:5:1
0:-1
5:3:1
1:-1
1:3:1
-1:-1
1:4:1
-1:-1
0:3:1
-1:-1
0:10:1
-1:-1
0:4:1
-1:-1
0:3:1
-1:-1
1:4:1
-1:1
1:4:1
-1:-1
3:2:1
0:-1
0:3:1
-1:-1
0:4:1
-1:-1
0:7:1
-1:1
3:3:1
0:-1
1:2:1
-1:-1
1:4:1
-1:-1
1:11:1
-1:1
2:7:1
0:-1
3:4:1
0:1
0:4:2
-1:-1
1:4:1
-1:-1
1:4:1
-1:-1
4:3:1
1:-1
1:4:1
-1:-1
1:4:1
-1:-1
3:4:1
0:1
3:2:2
0:-1
1:3:2
-1:-1
1:4:1
-1:-1
4:3:1
1:-1
3:13:1
0:1
3:3:2
0:-1
1:11:2
-1:-1
2:7:1
0:1
2:4:2
0:0
3:5:2
0:-1
4:6:2
1:1
0:4:3
-1:0
0:4:2
-1:-1
0:6:1
-1:-1
3:3:1
0:-1
3:3:1
0:1
2:1:2
0:-1
1:4:2
-1:-1
0:3:1
-1:-1
1:4:1
-1:-1
1:4:1
-1:-1
5:3:1
1:-1
1:2:1
-1:-1
1:4:1
-1:-1
4:3:1
1:-1
4:2:1
1:1
0:3:2
-1:-1
1:5:1
-1:-1
4:4:1
1:-1
1:2:1
-1:-1
1:5:1
-1:-1
4:2:1
1:-1
4:3:1
1:-1
0:3:1
-1:-1
1:5:1
-1:-1
4:2:1
1:-1
1:3:1
-1:-1
1:4:1
-1:-1
0:3:1
-1:-1
0:5:1
-1:-1
1:5:1
-1:-1
0:3:1
-1:-1
1:3:1
-1:-1
1:4:1
-1:-1
4:2:1
1:-1
1:5:1
-1:-1
0:4:1
-1:1
0:5:1
-1:-1
0:2:1
-1:-1
1:3:1
-1:1
1:4:1
-1:-1
0:4:1
-1:-1
0:4:1
-1:-1
1:5:1
-1:-1
4:3:1
1:-1
1:2:1
-1:-1
1:4:1
-1:-1
0:3:1
-1:-1
0:4:1
-1:-1
1:5:1
-1:-1
4:2:1
1:-1
4:1:1
1:-1
1:4:1
-1:-1
1:4:1
-1:-1
4:3:1
1:-1
1:4:1
-1:-1
1:4:1
-1:-1
5:3:1
1:-1
1:2:1
-1:-1
1:4:1
-1:-1
0:3:1
-1:-1
0:4:1
-1:-1
1:5:1
-1:-1
4:2:1
1:-1
4:1:1
1:-1
1:5:1
-1:-1
1:4:1
-1:-1
3:4:1
0:-1
0:5:1
-1:-1
0:4:1
-1:-1
3:3:1
0:-1
4:2:1
1:-1
1:2:1
-1:-1
1:5:1
-1:-1
0:3:1
-1:-1
0:4:1
-1:-1
1:5:1
-1:-1
4:2:1
1:-1
4:2:1
1:1
1:1:2
-1:-1
1:4:1
-1:-1
0:8:1
-1:-1
0:4:1
-1:-1
0:4:1
-1:-1
4:3:1
1:-1
4:2:1
1:-1
4:4:1
1:1
0:2:2
-1:-1
4:7:1
1:-1
3:4:1
0:1
4:2:2
1:-1
0:2:2
-1:-1
4:5:1
1:-1
0:3:1
-1:-1
0:2:1
-1:-1
0:6:1
-1:-1
3:3:1
0:-1
1:2:1
-1:-1
1:4:1
-1:-1
0:3:1
-1:-1
0:4:1
-1:-1
1:5:1
-1:-1
4:3:1
1:-1
1:2:1
-1:-1
1:4:1
-1:-1
4:2:1
1:-1
5:2:1
1:1
0:2:2
-1:-1
1:6:1
-1:-1
3:4:1
0:-1
1:2:1
-1:-1
1:4:1
-1:-1
0:3:1
-1:-1
0:4:1
-1:-1
1:5:1
-1:-1
4:3:1
1:-1
1:2:1
-1:-1
1:5:1
-1:-1
0:5:1
-1:-1
1:5:1
-1:-1
4:3:1
1:-1
4:1:1
1:-1
1:2:1
-1:-1
1:5:1
-1:-1
0:3:1
-1:-1
1:5:1
-1:-1
1:4:1
-1:-1
0:3:1
-1:-1
2:19:1
0:1
2:12:2
0:0
2:8:2
0:1
2:5:3
0:-1
1:10:3
-1:0
5:3:2
1:-1
1:3:2
-1:-1
0:4:1
-1:-1
4:3:1
1:-1
4:2:1
1:-1
1:3:1
-1:-1
1:7:1
-1:-1
0:3:1
-1:-1
2:9:1
0:-1
0:29:1
-1:1
1:4:1
-1:1
0:9:1
-1:-1
3:4:1
0:-1
0:2:1
-1:-1
2:6:1
0:1
3:2:2
0:-1
4:2:2
1:-1
1:3:2
-1:-1
0:4:1
-1:-1
4:4:1
1:-1
1:2:1
-1:-1
1:3:1
-1:-1
0:4:1
-1:-1
1:5:1
-1:-1
0:4:1
-1:-1
3:4:1
0:-1
3:2:1
0:1
1:2:2
-1:-1
1:4:1
-1:-1
1:5:1
-1:-1
3:3:1
0:-1
1:2:1
-1:-1
0:4:1
-1:-1
0:3:1
-1:-1
3:4:1
0:1
1:2:2
-1:-1
3:5:1
0:-1
0:2:1
-1:-1
1:4:1
-1:-1
0:4:1
-1:-1
4:2:1
1:-1
5:1:1
1:1
1:3:2
-1:-1
1:5:1
-1:-1
0:3:1
-1:-1
1:4:1
-1:-1
0:4:1
-1:-1
4:3:1
1:-1
4:1:1
1:-1
4:4:1
1:1
4:4:2
1:0
0:1:3
-1:-1
1:4:2
-1:-1
1:4:1
-1:-1
0:4:1
-1:-1
4:4:1
1:1
4:4:2
1:0
0:2:3
-1:-1
0:4:2
-1:-1
1:5:1
-1:1
3:5:1
0:-1
2:2:1
0:-1
1:5:1
-1:-1
3:3:1
0:-1
0:4:1
-1:1
3:4:1
0:-1
0:6:1
-1:1
4:2:1
1:-1
4:4:1
1:-1
5:3:1
1:1
3:5:2
0:0
5:4:2
1:0
3:7:3
0:0
3:9:3
0:0
0:2:3
-1:-1
0:3:2
-1:0
1:4:1
-1:-1
3:2:1
0:-1
4:4:1
1:-1
1:2:1
-1:-1
1:4:1
-1:-1
4:4:1
1:-1
1:4:1
-1:-1
1:4:1
-1:-1
0:3:1
-1:-1
1:3:1
-1:-1
1:4:1
-1:-1
0:4:1
-1:-1
4:15:1
1:1
4:2:2
1:-1
2:3:2
0:-1
0:4:2
-1:-1
3:4:1
0:1
3:4:2
0:0
3:3:2
0:0
3:5:2
0:0
4:1:2
1:-1
1:2:2
-1:-1
1:4:1
-1:-1
1:3:1
-1:-1
0:4:1
-1:-1
3:2:1
0:-1
3:4:1
0:1
4:3:2
1:-1
1:2:2
-1:-1
1:5:1
-1:-1
0:3:1
-1:-1
4:5:1
1:-1
4:4:1
1:1
5:2:2
1:-1
0:11:2
-1:1
1:5:2
-1:-1
3:3:1
0:-1
1:2:1
-1:-1
1:5:1
-1:-1
4:2:1
1:-1
0:1:1
-1:-1
1:4:1
-1:-1
1:4:1
-1:-1
4:5:1
1:-1
4:3:1
1:-1
4:4:1
1:1
0:3:2
-1:-1
1:4:1
-1:-1
1:4:1
-1:-1
1:5:1
-1:-1
1:4:1
-1:-1
0:3:1
-1:-1
1:5:1
-1:-1
1:4:1
-1:-1
3:3:1
0:-1
4:1:1
1:1
1:2:2
-1:-1
1:4:1
-1:-1
0:3:1
-1:-1
1:4:1
-1:-1
1:5:1
-1:-1
2:3:1
0:-1
3:1:1
0:-1
1:2:1
-1:-1
1:4:1
-1:-1
4:3:1
1:-1
1:4:1
-1:-1
1:4:1
-1:-1
5:3:1
1:-1
1:3:1
-1:-1
1:4:1
-1:-1
0:3:1
-1:-1
1:3:1
-1:-1
1:5:1
-1:-1
4:2:1
1:-1
4:2:1
1:1
1:1:2
-1:-1
1:4:1
-1:-1
0:3:1
-1:-1
1:5:1
-1:-1
1:4:1
-1:-1
4:3:1
1:-1
1:2:1
-1:-1
1:4:1
-1:-1
0:3:1
-1:-1
0:6:1
-1:-1
1:5:1
-1:-1
3:3:1
0:-1
1:2:1
-1:-1
1:4:1
-1:-1
4:2:1
1:-1
4:3:1
1:-1
1:4:1
-1:-1
1:4:1
-1:-1
1:3:1
-1:-1
0:2:1
-1:-1
0:2:1
-1:-1
0:3:1
-1:-1
2:1:1
0:1
10:3:2
2:-1
1:4:2
-1:0
6:2:1
1:-1
9:3:1
2:-1
1:2:1
-1:-1
2:2:1
0:-1
5:1:1
1:1
3:2:2
0:-1
4:6:2
1:-1
5:2:2
1:0
2:3:3
0:-1
0:1:3
-1:-1
6:2:2
1:0
2:2:3
0:0
0:3:3
-1:-1
7:2:2
1:-1
0:3:2
-1:-1
0:4:1
-1:-1
0:3:1
-1:-1
1:5:1
-1:-1
1:4:1
-1:-1
4:3:1
1:-1
1:2:1
-1:-1
1:5:1
-1:-1
0:3:1
-1:-1
1:5:1
-1:-1
1:4:1
-1:-1
3:2:1
0:-1
4:1:1
1:-1
1:2:1
-1:-1
1:4:1
-1:-1
4:4:1
1:-1
1:5:1
-1:-1
1:4:1
-1:-1
4:3:1
1:-1
1:2:1
-1:-1
1:4:1
-1:-1
0:3:1
-1:-1
0:5:1
-1:-1
1:6:1
-1:-1
3:2:1
0:-1
3:1:1
0:-1
1:2:1
-1:-1
0:4:1
-1:-1
1:5:1
-1:1
4:3:1
1:-1
3:3:1
0:-1
3:4:1
0:1
4:2:2
1:-1
1:2:2
-1:-1
4:4:1
1:-1
0:4:1
-1:-1
1:5:1
-1:-1
0:5:1
-1:-1
0:4:1
-1:1
3:2:1
0:-1
1:1:1
-1:-1
2:5:1
0:-1
0:3:1
-1:-1
1:5:1
-1:-1
1:4:1
-1:-1
4:4:1
1:-1
1:2:1
-1:-1
1:3:1
-1:-1
4:3:1
1:-1
0:4:1
-1:-1
0:6:1
-1:-1
0:4:1
-1:-1
0:3:1
-1:-1
1:4:1
-1:1
1:6:1
-1:-1
3:4:1
0:-1
3:2:1
0:-1
0:3:1
-1:-1
1:4:1
-1:-1
3:4:1
0:-1
1:3:1
-1:-1
0:11:1
-1:1
1:3:1
-1:-1
0:3:1
-1:-1
3:5:1
0:-1
3:4:1
0:1
0:2:2
-1:-1
4:6:1
1:-1
2:10:1
0:-1
2:9:1
0:1
0:2:2
-1:-1
0:5:1
-1:-1
3:2:1
0:-1
2:4:1
0:1
3:3:2
0:-1
2:8:2
0:-1
3:4:2
0:1
1:4:3
-1:-1
2:5:2
0:-1
3:2:2
0:-1
4:1:2
1:0
1:2:3
-1:-1
1:4:2
-1:-1
0:3:1
-1:-1
1:4:1
-1:-1
1:5:1
-1:-1
4:2:1
1:-1
1:3:1
-1:-1
1:5:1
-1:-1
0:5:1
-1:-1
1:5:1
-1:-1
0:6:1
-1:-1
4:3:1
1:-1
1:2:1
-1:-1
1:5:1
-1:-1
0:3:1
-1:-1
1:6:1
-1:-1
3:5:1
0:-1
2:5:1
0:1
3:4:2
0:0
0:4:2
-1:-1
1:5:1
-1:-1
1:4:1
-1:-1
0:3:1
-1:-1
1:3:1
-1:-1
1:4:1
-1:-1
0:3:1
-1:-1
1:4:1
-1:-1
1:4:1
-1:-1
0:4:1
-1:-1
0:11:1
-1:-1
4:7:1
1:-1
4:2:1
1:1
3:4:2
0:-1
0:14:2
-1:-1
2:9:1
0:1
0:15:2
-1:0
2:6:1
0:1
2:6:2
0:-1
2:1:2
0:-1
1:3:2
-1:-1
0:3:1
-1:-1
0:4:1
-1:-1
2:2:1
0:-1
2:5:1
0:1
3:4:2
0:-1
1:2:2
-1:-1
1:4:1
-1:-1
4:2:1
1:-1
4:2:1
1:1
1:2:2
-1:-1
1:5:1
-1:-1
4:3:1
1:-1
1:2:1
-1:-1
1:4:1
-1:-1
0:3:1
-1:-1
1:5:1
-1:1
1:7:1
-1:-1
0:3:1
-1:-1
1:4:1
-1:-1
1:5:1
-1:-1
0:3:1
-1:-1
1:4:1
-1:-1
1:5:1
-1:-1
4:2:1
1:-1
4:1:1
1:-1
1:2:1
-1:-1
1:4:1
-1:-1
0:3:1
-1:-1
1:5:1
-1:-1
1:6:1
-1:-1
4:2:1
1:-1
1:3:1
-1:-1
1:4:1
-1:-1
0:3:1
-1:-1
1:4:1
-1:-1
1:5:1
-1:-1
4:2:1
1:-1
4:1:1
1:-1
1:2:1
-1:-1
1:4:1
-1:-1
0:4:1
-1:-1
1:4:1
-1:-1
1:5:1
-1:-1
4:4:1
1:-1
1:2:1
-1:-1
3:7:1
0:-1
4:1:1
1:-1
4:2:1
1:1
1:3:2
-1:-1
4:5:1
1:-1
4:2:1
1:1
1:2:2
-1:-1
0:4:1
-1:-1
0:3:1
-1:-1
4:5:1
1:-1
4:5:1
1:1
4:2:2
1:-1
1:4:2
-1:-1
1:4:1
-1:-1
3:5:1
0:-1
0:2:1
-1:-1
0:6:1
-1:-1
0:5:1
-1:-1
3:3:1
0:-1
1:2:1
-1:-1
1:4:1
-1:-1
4:2:1
1:-1
4:2:1
1:-1
1:3:1
-1:-1
1:5:1
-1:-1
4:3:1
1:-1
1:2:1
-1:-1
1:4:1
-1:-1
0:3:1
-1:-1
1:4:1
-1:-1
1:6:1
-1:-1
4:3:1
1:-1
1:2:1
-1:-1
1:4:1
-1:-1
4:2:1
1:-1
4:3:1
1:1
1:2:2
-1:-1
1:5:1
-1:-1
4:3:1
1:-1
1:2:1
-1:-1
1:4:1
-1:-1
0:4:1
-1:-1
1:3:1
-1:-1
1:6:1
-1:-1
3:3:1
0:-1
1:2:1
-1:-1
1:4:1
-1:-1
0:3:1
-1:-1
1:4:1
-1:-1
1:5:1
-1:-1
4:2:1
1:-1
4:1:1
1:-1
1:2:1
-1:-1
1:5:1
-1:-1
0:3:1
-1:-1
1:3:1
-1:-1
1:6:1
-1:-1
4:3:1
1:-1
1:2:1
-1:-1
1:5:1
-1:-1
0:3:1
-1:-1
1:4:1
-1:-1
1:5:1
-1:-1
4:2:1
1:-1
4:1:1
1:-1
1:2:1
-1:-1
1:4:1
-1:-1
4:3:1
1:-1
4:5:1
1:1
3:7:2
0:0
3:3:2
0:-1
1:2:2
-1:-1
1:4:1
-1:-1
0:3:1
-1:-1
1:4:1
-1:-1
1:4:1
-1:-1
0:5:1
-1:-1
2:21:1
0:1
3:16:2
0:0
2:3:2
0:-1
1:8:2
-1:-1
5:7:1
1:-1
1:3:1
-1:-1
0:4:1
-1:-1
3:3:1
0:-1
4:2:1
1:1
1:3:2
-1:-1
1:6:1
-1:-1
2:26:1
0:-1
0:3:1
-1:-1
0:7:1
-1:-1
1:4:1
-1:1
2:2:1
0:1
1:1:2
-1:-1
3:5:1
0:-1
4:3:1
1:1
1:4:2
-1:-1
1:4:1
-1:-1
4:4:1
1:-1
1:3:1
-1:-1
1:3:1
-1:-1
0:4:1
-1:-1
1:4:1
-1:-1
1:4:1
-1:-1
5:4:1
1:-1
1:2:1
-1:-1
1:5:1
-1:-1
4:2:1
1:-1
4:2:1
1:-1
1:3:1
-1:-1
1:4:1
-1:-1
4:4:1
1:-1
1:2:1
-1:-1
1:4:1
-1:-1
0:3:1
-1:-1
0:7:1
-1:1
2:4:1
0:-1
2:4:1
0:1
3:2:2
0:-1
1:2:2
-1:-1
1:7:1
-1:-1
3:3:1
0:-1
3:2:1
0:-1
1:3:1
-1:-1
0:4:1
-1:-1
2:6:1
0:1
3:4:2
0:-1
0:8:2
-1:1
3:3:2
0:1
3:3:3
0:0
3:3:3
0:0
5:4:3
1:0
5:4:4
1:0
3:2:5
0:-1
0:3:5
-1:-1
1:5:4
-1:0
4:2:3
1:-1
4:1:3
1:-1
0:2:3
-1:-1
1:5:2
-1:-1
4:3:1
1:-1
3:7:1
0:1
1:5:2
-1:1
1:10:2
-1:0
4:6:1
1:-1
3:10:1
0:-1
0:10:1
-1:1
0:3:1
-1:1
0:5:1
-1:-1
0:3:1
-1:-1
1:4:1
-1:-1
1:6:1
-1:-1
3:3:1
0:-1
3:1:1
0:-1
1:5:1
-1:-1
1:5:1
-1:-1
3:3:1
0:-1
0:10:1
-1:-1
0:4:1
-1:-1
2:15:1
0:1
3:2:2
0:-1
2:2:2
0:-1
1:5:2
-1:-1
4:3:1
1:-1
1:4:1
-1:-1
1:5:1
-1:-1
4:3:1
1:-1
1:5:1
-1:-1
1:4:1
-1:-1
4:4:1
1:-1
1:4:1
-1:-1
1:4:1
-1:-1
4:4:1
1:-1
1:2:1
-1:-1
1:4:1
-1:-1
0:3:1
-1:-1
4:5:1
1:-1
4:4:1
1:1
4:3:2
1:-1
0:11:2
-1:1
1:6:2
-1:-1
2:2:1
0:-1
5:1:1
1:-1
1:2:1
-1:-1
1:6:1
-1:-1
0:3:1
-1:-1
1:4:1
-1:-1
1:4:1
-1:-1
4:3:1
1:-1
4:3:1
1:-1
4:4:1
1:1
0:2:2
-1:-1
1:4:1
-1:-1
1:4:1
-1:-1
5:3:1
1:-1
1:2:1
-1:-1
1:4:1
-1:-1
4:2:1
1:-1
4:2:1
1:-1
0:5:1
-1:-1
1:5:1
-1:-1
3:3:1
0:-1
1:2:1
-1:-1
1:4:1
-1:-1
0:4:1
-1:-1
0:3:1
-1:-1
1:6:1
-1:-1
3:3:1
0:-1
1:2:1
-1:-1
1:5:1
-1:-1
5:2:1
1:-1
4:2:1
1:-1
0:4:1
-1:-1
1:7:1
-1:-1
0:3:1
-1:-1
3:3:1
0:-1
4:5:1
1:1
0:2:2
-1:-1
0:3:1
-1:-1
1:6:1
-1:-1
4:4:1
1:-1
0:2:1
-1:-1
1:4:1
-1:-1
0:3:1
-1:-1
0:4:1
-1:-1
1:5:1
-1:-1
4:2:1
1:-1
1:3:1
-1:1
1:4:1
-1:-1
0:3:1
-1:-1
0:4:1
-1:-1
1:5:1
-1:-1
3:2:1
0:-1
Finished CPU 0 instructions: 10000000 cycles: 14558437 cumulative IPC: 0.686887 (Simulation time: 0 hr 0 min 46 sec) 

CPU 0 Branch Prediction Accuracy: 99.9322% MPKI: 0.0507 Average ROB Occupancy at Mispredict: 130.755

ChampSim completed all CPUs

Region of Interest Statistics

CPU 0 cumulative IPC: 0.686887 instructions: 10000000 cycles: 14558437
L1D TOTAL     ACCESS:    5170924  HIT:    5125401  MISS:      45523
L1D LOAD      ACCESS:    2105720  HIT:    2101630  MISS:       4090
L1D RFO       ACCESS:    1105377  HIT:    1105299  MISS:         78
L1D PREFETCH  ACCESS:    1959827  HIT:    1918472  MISS:      41355
L1D WRITEBACK ACCESS:          0  HIT:          0  MISS:          0
L1D PREFETCH  REQUESTED:    2321561  ISSUED:    2227179  USEFUL:      41895  USELESS:       3776
L1D AVERAGE MISS LATENCY: 396.43 cycles
L1I TOTAL     ACCESS:    3806265  HIT:    3806165  MISS:        100
L1I LOAD      ACCESS:    3806265  HIT:    3806165  MISS:        100
L1I RFO       ACCESS:          0  HIT:          0  MISS:          0
L1I PREFETCH  ACCESS:          0  HIT:          0  MISS:          0
L1I WRITEBACK ACCESS:          0  HIT:          0  MISS:          0
L1I PREFETCH  REQUESTED:          0  ISSUED:          0  USEFUL:          0  USELESS:          0
L1I AVERAGE MISS LATENCY: 110.62 cycles
L2C TOTAL     ACCESS:     103652  HIT:     101280  MISS:       2372
L2C LOAD      ACCESS:       4188  HIT:       3988  MISS:        200
L2C RFO       ACCESS:         78  HIT:         47  MISS:         31
L2C PREFETCH  ACCESS:      84328  HIT:      82187  MISS:       2141
L2C WRITEBACK ACCESS:      15058  HIT:      15058  MISS:          0
L2C PREFETCH  REQUESTED:      52848  ISSUED:      52113  USEFUL:        440  USELESS:          0
L2C AVERAGE MISS LATENCY: 129.368 cycles
LLC TOTAL     ACCESS:       2372  HIT:          0  MISS:       2372
LLC LOAD      ACCESS:        187  HIT:          0  MISS:        187
LLC RFO       ACCESS:         31  HIT:          0  MISS:         31
LLC PREFETCH  ACCESS:       2154  HIT:          0  MISS:       2154
LLC WRITEBACK ACCESS:          0  HIT:          0  MISS:          0
LLC PREFETCH  REQUESTED:          0  ISSUED:          0  USEFUL:          0  USELESS:          0
LLC AVERAGE MISS LATENCY: 99.9199 cycles
Major fault: 0 Minor fault: 148
CPU 0 L2C next line prefetcher final stats

DRAM Statistics
 CHANNEL 0
 RQ ROW_BUFFER_HIT:       1755  ROW_BUFFER_MISS:        617
 DBUS_CONGESTED:        268
 WQ ROW_BUFFER_HIT:          0  ROW_BUFFER_MISS:          0  FULL:          0

 AVG_CONGESTED_CYCLE: 4
