
*** ChampSim Multicore Out-of-Order Simulator ***

Warmup Instructions: 1000000
Simulation Instructions: 10000000
Number of CPUs: 1
LLC sets: 2048
LLC ways: 16
Off-chip DRAM Size: 4096 MB Channels: 1 Width: 64-bit Data Rate: 3200 MT/s

CPU 0 runs /home/light/7th-Sem/cs622/project/ChampSim/dpc3_traces/649.fotonik3d_s-1176B.champsimtrace.xz
10:29:4
2:-1
0:30:4
-1:0
0:31:3
-1:0
5:29:2
1:-1
3:31:2
0:1
5:33:3
1:1
0:31:4
-1:1
10:33:4
2:1
10:31:6
2:1
5:30:8
1:1
5:32:9
1:1
10:32:10
2:1
2:29:12
0:1
10:29:12
2:1
10:31:12
2:1
6:28:12
1:1
10:30:12
2:0
5:31:12
1:1
5:32:12
1:1
10:28:12
2:0
4:32:12
1:1
6:29:12
1:0
5:30:12
1:1
10:32:12
2:0
5:30:12
1:1
10:30:12
2:0
4:32:12
1:1
0:27:12
-1:0
10:33:11
2:1
5:31:12
1:1
3:31:12
0:0
10:31:12
2:0
10:33:12
2:1
4:27:12
1:1
0:31:12
-1:0
5:34:11
1:-1
2:31:11
0:1
10:27:12
2:1
4:32:12
1:1
5:27:12
1:0
5:33:12
1:1
10:32:12
2:0
3:28:12
0:1
10:28:12
2:1
4:32:12
1:1
2:28:12
0:0
10:31:12
2:1
10:32:12
2:1
5:30:12
1:1
10:30:12
2:0
5:31:12
1:1
5:29:12
1:0
10:31:12
2:0
4:32:12
1:1
5:31:12
1:1
5:30:12
1:1
10:32:12
2:0
6:29:12
1:1
8:24:12
2:0
4:32:12
1:1
0:30:12
-1:0
14:27:11
2:1
5:31:12
1:1
5:29:12
1:0
10:31:12
2:0
10:33:12
2:1
4:30:12
1:1
5:32:12
1:1
5:33:12
1:1
2:27:12
0:0
10:33:12
2:1
4:30:12
1:1
5:25:12
1:1
5:33:12
1:1
10:32:12
2:0
5:27:12
1:1
5:28:12
1:1
9:32:12
2:1
3:26:12
0:1
5:28:12
1:1
5:32:12
1:1
5:30:12
1:0
10:32:12
2:0
10:30:12
2:1
4:29:12
1:1
5:32:12
1:1
5:33:12
1:1
4:28:12
1:-1
10:33:12
2:1
4:32:12
1:1
5:29:12
1:1
5:27:12
1:1
10:32:12
2:0
6:29:12
1:1
4:32:12
1:1
5:32:12
1:1
3:32:12
0:1
0:29:12
-1:0
4:38:11
1:-1
8:32:11
2:1
4:23:12
1:-1
10:27:12
2:-1
6:29:12
1:1
8:33:12
2:1
4:31:12
1:1
5:28:12
1:1
10:31:12
2:0
11:27:12
2:1
5:30:12
1:1
10:31:12
2:0
4:30:12
1:1
10:31:12
2:0
10:29:12
2:-1
5:30:12
1:1
5:33:12
1:1
10:30:12
2:0
2:28:12
0:1
5:28:12
1:1
10:31:12
2:0
10:30:12
2:1
0:27:12
-1:1
5:32:12
1:1
5:33:12
1:1
5:30:12
1:1
11:29:12
2:0
10:31:12
2:1
1:28:12
-1:1
4:31:12
1:1
10:31:12
2:0
5:31:12
1:1
10:31:12
2:0
10:30:12
2:1
0:30:12
-1:1
10:29:12
2:1
10:32:12
2:1
5:29:12
1:1
10:31:12
2:0
5:29:12
1:1
5:32:12
1:1
5:31:12
1:1
10:33:12
2:0
5:30:12
1:1
10:31:12
2:0
5:29:12
1:1
10:31:12
2:0
10:29:12
2:-1
10:32:12
2:1
10:31:12
2:1
10:31:12
2:-1
12:28:12
2:1
9:30:12
2:1
5:29:12
1:-1
5:31:12
1:1
4:32:12
1:1
5:30:12
1:1
10:32:12
2:-1
5:29:12
1:1
5:30:12
1:1
10:32:12
2:0
5:30:12
1:1
10:32:12
2:0
10:29:12
2:1
5:31:12
1:1
5:31:12
1:1
4:35:12
1:1
2:31:12
0:0
10:30:12
2:1
5:28:12
1:1
2:31:12
0:0
10:31:12
2:1
10:31:12
2:1
2:31:12
0:1
10:31:12
2:1
10:27:12
2:1
5:30:12
1:1
10:31:12
2:0
4:29:12
1:1
9:28:12
2:0
9:30:12
2:-1
5:27:12
1:1
5:33:12
1:1
10:30:12
2:0
6:31:12
1:1
4:32:12
1:1
10:31:12
2:0
10:30:12
2:1
0:30:12
-1:1
5:32:12
1:1
5:33:12
1:1
5:30:12
1:1
11:29:12
2:0
2:42:12
0:1
10:31:12
2:1
6:30:12
1:1
9:33:12
2:1
10:29:12
2:1
5:29:12
1:1
5:29:12
1:1
5:32:12
1:1
7:31:12
1:0
10:29:12
2:1
4:33:12
1:1
0:30:12
-1:0
4:32:11
1:1
10:30:12
2:0
7:29:12
1:1
5:32:12
1:1
5:33:12
1:1
2:26:12
0:0
10:31:12
2:0
10:32:12
2:1
9:29:12
2:1
4:31:12
1:1
10:31:12
2:0
0:29:12
-1:1
10:34:12
2:1
10:32:12
2:1
7:30:12
1:1
10:33:12
2:1
10:32:12
2:1
7:27:12
1:1
5:32:12
1:1
5:33:12
1:1
5:30:12
1:1
10:32:12
2:0
10:33:12
2:1
0:28:12
-1:1
4:35:12
1:1
5:32:12
1:1
5:30:12
1:1
9:27:12
2:0
10:32:12
2:1
2:30:12
0:1
10:32:12
2:0
5:31:12
1:1
9:29:12
2:0
9:28:12
2:1
10:31:12
2:1
7:29:12
1:1
5:32:12
1:1
5:33:12
1:1
5:29:12
1:1
10:31:12
2:0
10:32:12
2:1
9:28:12
2:1
4:31:12
1:1
10:31:12
2:0
5:28:12
1:0
10:32:12
2:0
10:32:12
2:1
7:29:12
1:1
10:33:12
2:1
10:32:12
2:1
7:28:12
1:1
5:31:12
1:1
5:28:12
1:1
0:29:12
-1:0
4:31:11
1:1
10:29:12
2:0
5:29:12
1:1
8:37:12
2:1
5:28:12
1:1
2:30:12
0:0
10:33:12
2:0
10:32:12
2:1
5:30:12
1:1
10:32:12
2:0
5:31:12
1:1
9:30:12
2:0
10:31:12
2:1
10:28:12
2:1
7:29:12
1:1
5:32:12
1:1
5:33:12
1:1
2:25:12
0:0
10:31:12
2:0
10:32:12
2:1
9:29:12
2:1
4:31:12
1:1
10:31:12
2:0
0:29:12
-1:1
10:33:12
2:1
10:32:12
2:1
7:30:12
1:1
10:33:12
2:1
5:56:12
1:1
4:34:12
1:1
5:31:12
1:1
3:32:12
0:0
4:24:12
1:0
10:33:12
2:1
4:29:12
1:1
4:31:12
1:1
5:29:12
1:1
10:32:12
2:0
6:31:12
1:1
5:27:12
1:1
5:32:12
1:1
5:31:12
1:1
9:27:12
2:0
4:26:12
1:1
6:30:12
1:0
5:28:12
1:1
10:31:12
2:0
5:30:12
1:1
9:29:12
2:1
4:31:12
1:1
4:31:12
1:0
2:31:12
0:1
10:32:12
2:0
5:29:12
1:1
10:32:12
2:0
10:31:12
2:1
2:29:12
0:1
10:31:12
2:1
5:33:12
1:1
5:27:12
1:1
10:27:12
2:0
11:32:12
2:1
3:29:12
0:1
10:32:12
2:1
5:31:12
1:1
2:28:12
0:0
5:31:12
1:1
3:33:12
0:0
1:29:12
-1:1
10:28:12
2:1
5:31:12
1:1
5:31:12
1:1
5:29:12
1:1
10:31:12
2:0
4:29:12
1:1
10:32:12
2:1
10:31:12
2:1
5:30:12
1:1
9:28:12
2:0
10:33:12
2:1
5:30:12
1:1
9:29:12
2:1
5:31:12
1:1
4:31:12
1:0
2:31:12
0:1
10:32:12
2:0
5:29:12
1:1
10:32:12
2:0
10:31:12
2:1
2:29:12
0:1
10:31:12
2:1
3:33:12
0:1
5:28:12
1:1
10:28:12
2:0
10:33:12
2:1
3:29:12
0:1
10:32:12
2:1
2:30:12
0:1
2:29:12
0:0
5:31:12
1:1
3:33:12
0:1
1:29:12
-1:1
10:29:12
2:1
3:31:12
0:1
5:31:12
1:1
5:29:12
1:1
10:32:12
2:0
4:31:12
1:1
5:27:12
1:1
3:28:12
0:0
5:31:12
1:1
9:28:12
2:0
10:33:12
2:1
5:30:12
1:1
9:29:12
2:1
4:31:12
1:1
4:31:12
1:0
5:31:12
1:1
10:32:12
2:0
5:29:12
1:1
10:32:12
2:0
10:31:12
2:1
6:34:12
1:1
7:34:12
1:1
10:31:12
2:1
10:33:12
2:1
5:29:12
1:1
10:32:12
2:0
5:31:12
1:1
5:30:12
1:0
10:33:12
2:1
4:33:12
1:1
5:29:12
1:1
3:33:12
0:0
10:32:12
2:0
5:29:12
1:1
10:32:12
2:0
4:32:12
1:1
5:29:12
1:0
11:30:12
2:1
10:32:12
2:1
5:30:12
1:1
10:32:12
2:0
5:31:12
1:1
2:32:12
0:1
0:26:12
-1:1
10:33:12
2:1
4:30:12
1:1
10:31:12
2:0
10:31:12
2:1
0:30:12
-1:1
10:31:12
2:1
5:32:12
1:1
0:30:12
-1:0

Warmup complete CPU 0 instructions: 1000003 cycles: 425249 (Simulation time: 0 hr 0 min 3 sec) 

7:24:11
1:1
13:14:12
2:1
10:19:12
2:1
10:18:12
2:0
3:11:12
0:0
9:18:12
2:1
9:16:12
2:0
10:18:12
2:1
10:17:12
2:0
6:8:12
1:-1
9:9:12
2:0
6:18:12
1:0
7:7:12
1:0
6:12:12
1:0
6:7:12
1:0
8:7:12
2:0
10:17:12
2:0
7:22:12
1:1
2:13:12
0:0
6:7:12
1:0
7:7:12
1:0
7:7:12
1:0
6:12:12
1:0
9:7:12
2:0
4:7:12
1:-1
8:15:12
2:0
5:18:12
1:1
8:8:12
2:0
9:16:12
2:0
6:9:12
1:-1
6:11:12
1:0
8:5:12
2:0
5:19:12
1:1
6:11:12
1:0
5:5:12
1:0
9:20:12
2:1
10:17:12
2:0
10:18:12
2:1
10:17:12
2:0
6:6:12
1:-1
7:8:12
1:0
6:12:12
1:0
7:7:12
1:0
7:10:12
1:0
5:7:12
1:-1
7:7:12
1:0
6:11:12
1:-1
6:10:12
1:0
7:8:12
1:0
6:9:12
1:0
4:19:12
1:1
7:9:12
1:0
5:18:12
1:0
8:9:12
2:0
7:7:12
1:-1
9:10:12
2:0
10:18:12
2:1
10:20:12
2:1
9:16:12
2:0
6:8:12
1:-1
6:12:12
1:0
6:9:12
1:0
9:11:12
2:0
0:18:12
-1:1
5:17:12
1:0
3:11:12
0:0
8:9:12
2:0
11:18:12
2:1
5:13:12
1:0
8:8:12
2:0
8:19:12
2:0
8:18:12
2:1
10:16:12
2:1
5:12:12
1:0
8:8:12
2:0
4:20:12
1:1
8:10:12
2:0
8:20:12
2:0
5:5:12
1:-1
6:5:12
1:0
6:11:12
1:0
9:9:12
2:0
10:17:12
2:0
2:14:12
0:0
10:14:12
2:0
4:18:12
1:1
8:8:12
2:0
9:18:12
2:0
3:10:12
0:0
9:20:12
2:1
7:13:12
1:0
9:7:12
2:0
5:19:12
1:1
6:8:12
1:0
9:6:12
2:0
10:19:12
2:1
4:18:12
1:0
8:10:12
2:0
5:9:12
1:-1
10:18:12
2:1
10:20:12
2:1
8:15:12
2:0
0:25:12
-1:1
2:31:12
0:-1
6:16:12
1:0
8:9:12
2:0
10:20:12
2:1
0:17:12
-1:0
3:7:11
0:0
9:16:11
2:0
10:18:12
2:1
10:19:12
2:1
10:17:12
2:0
4:6:12
1:-1
9:16:12
2:0
10:19:12
2:1
4:18:12
1:0
4:9:12
1:-1
6:6:12
1:0
5:19:12
1:1
8:10:12
2:0
5:18:12
1:1
0:10:12
-1:0
10:16:11
2:1
5:19:12
1:1
8:8:12
2:0
10:18:12
2:1
6:13:12
1:0
7:7:12
1:0
5:11:12
1:0
5:11:12
1:0
6:7:12
1:0
2:6:12
0:0
10:18:12
2:1
10:19:12
2:1
10:19:12
2:1
10:18:12
2:0
4:12:12
1:0
5:17:12
1:0
8:7:12
2:0
5:18:12
1:1
8:11:12
2:0
5:9:12
1:-1
6:11:12
1:0
8:9:12
2:0
5:19:12
1:1
3:10:12
0:-1
6:7:12
1:0
6:12:12
1:0
6:11:12
1:0
6:7:12
1:0
6:12:12
1:0
7:6:12
1:0
4:19:12
1:1
6:11:12
1:0
7:8:12
1:0
0:15:12
-1:0
6:15:11
1:0
7:7:12
1:0
7:8:12
1:0
6:10:12
1:0
0:8:12
-1:0
5:16:11
1:0
7:7:12
1:0
8:9:12
2:0
9:18:12
2:1
0:15:12
-1:0
6:16:11
1:0
6:10:12
1:0
8:8:12
2:0
5:18:12
1:0
6:7:12
1:0
8:9:12
2:0
8:19:12
2:0
10:17:12
2:1
10:16:12
2:0
6:14:12
1:0
6:9:12
1:0
11:15:12
2:1
10:19:12
2:1
10:18:12
2:1
4:13:12
1:0
10:18:12
2:1
10:17:12
2:0
9:17:12
2:0
10:18:12
2:1
7:8:12
1:-1
8:8:12
2:0
5:19:12
1:1
9:10:12
2:0
10:19:12
2:1
7:9:12
1:-1
5:18:12
1:1
7:7:12
1:0
6:12:12
1:0
8:9:12
2:-1
8:8:12
2:-1
9:19:12
2:1
9:17:12
2:0
5:18:12
1:1
0:9:12
-1:0
8:14:11
2:0
9:16:12
2:0
10:17:12
2:0
0:18:12
-1:1
4:9:12
1:0
10:18:12
2:1
10:20:12
2:1
5:16:12
1:0
8:13:12
2:0
6:9:12
1:-1
9:17:12
2:0
5:18:12
1:1
6:9:12
1:0
8:8:12
2:-1
6:7:12
1:-1
6:9:12
1:0
7:7:12
1:0
6:12:12
1:0
8:7:12
2:0
4:7:12
1:-1
10:17:12
2:0
10:19:12
2:1
10:17:12
2:0
9:17:12
2:0
6:7:12
1:-1
6:10:12
1:0
8:9:12
2:0
10:18:12
2:1
0:16:12
-1:0
5:17:11
1:1
6:8:12
1:0
6:10:12
1:0
7:9:12
1:0
0:15:12
-1:0
9:14:11
2:0
10:18:12
2:1
9:19:12
2:1
9:17:12
2:0
2:14:12
0:0
10:18:12
2:1
10:18:12
2:1
10:19:12
2:1
10:17:12
2:0
4:10:12
1:0
5:18:12
1:0
8:7:12
2:0
10:17:12
2:0
9:18:12
2:1
5:8:12
1:-1
5:19:12
1:1
7:7:12
1:0
7:7:12
1:0
9:9:12
2:0
6:11:12
1:0
0:14:12
-1:0
6:12:11
1:0
0:8:12
-1:0
8:15:11
2:-1
8:15:11
2:0
2:20:12
0:0
9:16:12
2:0
3:15:12
0:1
3:11:12
0:0
8:6:12
2:0
2:12:12
0:0
9:17:12
2:0
9:18:12
2:1
9:19:12
2:1
5:17:12
1:0
6:6:12
1:0
6:12:12
1:0
6:9:12
1:0
4:10:12
1:-1
8:8:12
2:0
4:9:12
1:0
9:17:12
2:0
9:18:12
2:1
10:18:12
2:1
9:18:12
2:1
7:6:12
1:-1
6:11:12
1:0
7:11:12
1:0
5:7:12
1:-1
6:11:12
1:0
6:7:12
1:0
7:9:12
1:0
10:18:12
2:1
5:19:12
1:0
6:9:12
1:0
8:9:12
2:0
5:19:12
1:1
0:10:12
-1:0
7:9:11
1:0
0:6:12
-1:0
5:16:11
1:0
8:6:12
2:0
5:20:12
1:1
6:11:12
1:0
0:5:12
-1:0
5:16:11
1:0
8:8:12
2:0
0:17:12
-1:1
6:12:12
1:0
2:12:12
0:0
12:14:12
2:1
9:18:12
2:1
9:19:12
2:1
9:18:12
2:1
3:9:12
0:0
10:17:12
2:1
5:19:12
1:1
2:8:12
0:0
7:7:12
1:0
6:9:12
1:0
6:7:12
1:0
7:8:12
1:0
6:11:12
1:0
7:8:12
1:0
7:7:12
1:0
7:6:12
1:0
9:16:12
2:0
9:16:12
2:0
8:15:12
2:0
0:17:12
-1:0
5:17:11
1:1
8:10:12
2:0
5:19:12
1:1
9:10:12
2:0
2:12:12
0:0
5:17:12
1:0
6:11:12
1:0
2:7:12
0:0
6:12:12
1:0
6:8:12
1:0
8:9:12
2:0
9:19:12
2:1
5:18:12
1:0
6:11:12
1:0
5:7:12
1:0
9:16:12
2:0
10:20:12
2:1
5:17:12
1:0
6:13:12
1:0
4:6:12
1:-1
6:10:12
1:0
4:17:12
1:1
6:10:12
1:0
7:11:12
1:0
6:5:12
1:-1
6:15:12
1:0
8:9:12
2:0
9:20:12
2:1
5:18:12
1:0
7:6:12
1:0
9:18:12
2:1
10:18:12
2:1
10:19:12
2:1
2:14:12
0:0
10:18:12
2:1
10:18:12
2:1
11:18:12
2:1
10:20:12
2:1
4:8:12
1:-1
4:19:12
1:1
7:12:12
1:0
6:7:12
1:0
6:12:12
1:0
7:6:12
1:0
10:19:12
2:1
10:19:12
2:1
10:18:12
2:1
0:17:12
-1:0
9:14:11
2:0
10:18:12
2:1
10:20:12
2:1
6:16:12
1:0
2:6:12
0:0
5:18:12
1:0
9:9:12
2:0
8:14:12
2:0
9:18:12
2:1
3:7:12
0:-1
5:19:12
1:1
8:10:12
2:0
9:16:12
2:0
5:19:12
1:1
5:7:12
1:0
8:9:12
2:0
8:22:12
2:1
11:14:12
2:0
5:18:12
1:1
4:7:12
1:0
9:18:12
2:1
5:19:12
1:1
7:8:12
1:0
7:7:12
1:0
3:12:12
0:0
8:18:12
2:1
8:18:12
2:1
11:15:12
2:1
8:20:12
2:1
4:7:12
1:0
6:12:12
1:0
8:6:12
2:0
5:20:12
1:1
8:8:12
2:0
7:9:12
1:-1
0:12:12
-1:-1
4:32:11
1:-1
5:18:11
1:1
7:8:12
1:0
8:10:12
2:0
2:13:12
0:0
9:16:12
2:0
9:16:12
2:0
5:18:12
1:1
6:10:12
1:0
6:6:12
1:0
8:8:12
2:0
6:16:12
1:0
6:11:12
1:0
3:14:12
0:0
6:8:12
1:0
4:8:12
1:-1
6:12:12
1:0
7:9:12
1:0
7:7:12
1:0
2:10:12
0:0
4:15:12
1:0
6:10:12
1:0
8:11:12
2:0
10:18:12
2:1
5:10:12
1:0
8:15:12
2:0
5:18:12
1:1
8:10:12
2:0
9:16:12
2:0
6:9:12
1:0
9:10:12
2:0
5:20:12
1:1
6:11:12
1:0
6:11:12
1:0
5:4:12
1:0
5:20:12
1:1
6:8:12
1:0
8:8:12
2:0
5:18:12
1:0
5:6:12
1:0
10:19:12
2:1
10:17:12
2:0
10:18:12
2:1
0:18:12
-1:0
10:14:11
2:0
10:18:12
2:1
10:17:12
2:0
9:18:12
2:1
6:12:12
1:0
8:8:12
2:0
10:19:12
2:1
10:19:12
2:1
10:17:12
2:0
6:10:12
1:0
8:5:12
2:-1
10:17:12
2:0
3:20:12
0:1
8:9:12
2:0
3:13:12
0:0
10:20:12
2:1
9:16:12
2:0
10:18:12
2:1
10:18:12
2:0
7:9:12
1:0
5:8:12
1:-1
7:13:12
1:0
5:18:12
1:1
6:11:12
1:0
6:7:12
1:0
8:8:12
2:0
10:17:12
2:0
5:18:12
1:1
6:11:12
1:0
4:6:12
1:0
9:17:12
2:0
5:18:12
1:1
8:8:12
2:0
10:19:12
2:1
6:10:12
1:-1
6:9:12
1:0
6:7:12
1:0
8:9:12
2:0
10:18:12
2:1
5:6:12
1:-1
9:18:12
2:1
10:18:12
2:1
9:22:12
2:1
10:14:12
2:0
5:5:12
1:-1
5:19:12
1:1
7:8:12
1:0
8:8:12
2:0
5:18:12
1:0
5:5:12
1:0
9:19:12
2:1
10:17:12
2:0
10:18:12
2:1
0:17:12
-1:0
9:15:11
2:0
10:18:12
2:1
10:17:12
2:0
10:19:12
2:1
6:12:12
1:0
8:9:12
2:-1
9:18:12
2:1
10:19:12
2:1
9:18:12
2:1
3:10:12
0:0
9:16:12
2:0
9:20:12
2:1
10:18:12
2:1
10:17:12
2:0
0:9:12
-1:-1
9:12:11
2:0
5:18:12
1:0
8:9:12
2:0
0:16:12
-1:0
10:16:11
2:0
10:19:12
2:1
10:17:12
2:0
10:19:12
2:1
2:12:12
0:0
9:18:12
2:1
9:18:12
2:1
9:16:12
2:0
10:18:12
2:1
7:6:12
1:-1
7:7:12
1:0
7:7:12
1:0
5:11:12
1:0
6:10:12
1:0
4:9:12
1:0
7:11:12
1:-1
8:19:12
2:1
5:16:12
1:0
8:8:12
2:0
2:5:12
0:0
9:18:12
2:0
9:18:12
2:1
5:17:12
1:1
9:11:12
2:0
3:10:12
0:0
9:16:12
2:0
9:17:12
2:0
5:18:12
1:1
6:11:12
1:0
6:7:12
1:0
8:8:12
2:0
5:18:12
1:0
8:8:12
2:0
5:17:12
1:0
4:8:12
1:0
9:18:12
2:1
4:28:12
1:0
6:11:12
1:0
4:18:12
1:0
6:9:12
1:0
2:13:12
0:0
6:16:12
1:0
8:7:12
2:0
10:16:12
2:0
10:19:12
2:1
6:14:12
1:0
6:11:12
1:0
6:8:12
1:0
7:8:12
1:0
6:11:12
1:0
7:8:12
1:0
8:9:12
2:0
9:16:12
2:0
10:20:12
2:1
1:14:12
-1:0
7:8:11
1:0
6:10:12
1:0
4:16:12
1:1
7:8:12
1:0
10:20:12
2:1
6:10:12
1:-1
10:19:12
2:1
10:19:12
2:1
10:17:12
2:0
0:18:12
-1:1
9:16:12
2:0
10:18:12
2:1
10:17:12
2:0
5:17:12
1:0
6:8:12
1:0
8:9:12
2:0
5:18:12
1:0
6:12:12
1:0
0:13:12
-1:0
3:11:11
0:0
8:18:11
2:1
5:13:12
1:0
7:7:12
1:0
5:10:12
1:0
3:7:12
0:0
10:19:12
2:1
5:17:12
1:0
8:8:12
2:0
3:18:12
0:0
5:8:12
1:0
8:8:12
2:0
10:17:12
2:0
10:18:12
2:1
5:17:12
1:0
6:6:12
1:0
8:14:12
2:0
0:15:12
-1:0
6:9:11
1:-1
4:7:11
1:-1
6:10:11
1:0
6:12:12
1:0
3:14:12
0:0
7:12:12
1:0
0:5:12
-1:0
10:17:11
2:0
8:19:12
2:0
10:16:12
2:1
10:18:12
2:1
6:13:12
1:0
7:6:12
1:0
8:12:12
2:0
5:18:12
1:1
6:11:12
1:0
6:7:12
1:0
7:7:12
1:0
7:8:12
1:0
8:9:12
2:0
12:19:12
2:1
5:15:12
1:0
9:12:12
2:0
4:6:12
1:0
6:12:12
1:0
11:15:12
2:1
5:13:12
1:0
8:9:12
2:0
9:19:12
2:1
9:18:12
2:0
9:17:12
2:0
6:9:12
1:-1
6:12:12
1:0
7:7:12
1:0
5:19:12
1:1
8:10:12
2:0
7:8:12
1:-1
9:18:12
2:1
10:17:12
2:0
10:19:12
2:1
10:17:12
2:0
7:7:12
1:-1
5:17:12
1:0
9:7:12
2:0
5:18:12
1:1
6:12:12
1:0
6:6:12
1:0
8:8:12
2:0
10:18:12
2:0
8:15:12
2:0
4:16:12
1:0
6:6:12
1:0
5:19:12
1:1
8:10:12
2:0
4:17:12
1:0
2:10:12
0:0
5:17:12
1:0
8:8:12
2:0
5:19:12
1:0
2:11:12
0:0
7:5:12
1:0
9:10:12
2:0
8:15:12
2:0
9:18:12
2:1
9:16:12
2:0
6:8:12
1:-1
6:9:12
1:0
7:9:12
1:0
6:7:12
1:0
3:12:12
0:0
4:11:12
1:0
12:13:12
2:1
6:22:12
1:0
13:13:12
2:1
10:17:12
2:0
4:9:12
1:-1
8:8:12
2:0
10:19:12
2:1
4:18:12
1:0
0:8:12
-1:-1
9:15:11
2:0
9:21:12
2:1
9:17:12
2:1
9:17:12
2:0
6:11:12
1:0
9:11:12
2:0
5:20:12
1:1
5:11:12
1:0
3:8:12
0:-1
7:5:12
1:0
6:10:12
1:0
5:10:12
1:0
7:8:12
1:0
5:11:12
1:0
6:6:12
1:0
8:9:12
2:0
0:30:12
-1:0
7:33:11
1:-1
11:14:11
2:1
5:19:12
1:0
5:6:12
1:0
4:17:12
1:1
6:10:12
1:-1
6:9:12
1:0
7:10:12
1:0
6:8:12
1:0
7:7:12
1:0
6:15:12
1:0
12:15:12
2:1
0:22:12
-1:0
11:12:11
2:0
0:17:12
-1:1
8:11:12
2:0
8:15:12
2:0
0:15:12
-1:0
10:16:11
2:0
5:21:12
1:1
9:8:12
2:0
10:19:12
2:1
2:13:12
0:0
10:18:12
2:1
9:18:12
2:1
10:18:12
2:1
9:18:12
2:1
6:9:12
1:-1
7:8:12
1:0
6:11:12
1:0
7:7:12
1:0
7:8:12
1:0
6:10:12
1:0
7:7:12
1:0
3:19:12
0:1
6:10:12
1:0
6:7:12
1:0
6:8:12
1:0
8:7:12
2:0
4:19:12
1:1
6:11:12
1:0
6:9:12
1:0
5:9:12
1:0
7:8:12
1:0
2:7:12
0:0
7:8:12
1:0
6:11:12
1:0
2:7:12
0:0
5:18:12
1:0
8:9:12
2:0
10:18:12
2:1
5:18:12
1:0
7:5:12
1:0
6:11:12
1:0
3:11:12
0:0
7:7:12
1:0
6:12:12
1:0
6:8:12
1:0
8:9:12
2:0
9:20:12
2:1
6:18:12
1:0
7:13:12
1:0
7:11:12
1:-1
4:16:12
1:1
7:13:12
1:-1
5:17:12
1:1
6:11:12
1:0
8:9:12
2:0
5:19:12
1:1
6:10:12
1:0
8:9:12
2:0
5:15:12
1:0
9:9:12
2:0
3:18:12
0:0
8:12:12
2:0
4:15:12
1:0
6:5:12
1:0
8:9:12
2:0
9:19:12
2:1
10:18:12
2:1
9:18:12
2:1
6:10:12
1:-1
6:8:12
1:0
4:10:12
1:-1
8:9:12
2:0
5:18:12
1:0
5:8:12
1:0
5:20:12
1:1
6:10:12
1:0
7:8:12
1:0
6:11:12
1:0
6:11:12
1:0
10:18:12
2:1
10:20:12
2:1
6:16:12
1:0
7:9:12
1:0
7:6:12
1:0
10:17:12
2:0
5:18:12
1:0
9:10:12
2:0
2:16:12
0:0
5:18:12
1:0
8:9:12
2:0
10:19:12
2:1
5:18:12
1:0
2:7:12
0:0
4:15:12
1:0
9:10:12
2:0
5:20:12
1:1
6:11:12
1:0
6:5:12
1:0
6:11:12
1:0
8:8:12
2:-1
5:17:12
1:0
9:9:12
2:0
4:13:12
1:0
10:16:12
2:0
5:19:12
1:1
8:8:12
2:0
10:18:12
2:1
6:9:12
1:-1
8:8:12
2:0
4:18:12
1:1
6:12:12
1:0
8:7:12
2:0
6:9:12
1:0
9:11:12
2:0
9:16:12
2:0
10:17:12
2:0
6:18:12
1:0
7:5:12
1:0
9:11:12
2:0
9:16:12
2:0
5:19:12
1:1
6:11:12
1:0
7:6:12
1:0
6:12:12
1:0
8:9:12
2:0
5:20:12
1:1
0:10:12
-1:0
5:17:11
1:1
2:11:12
0:0
6:11:12
1:0
7:7:12
1:0
6:9:12
1:0
7:12:12
1:0
8:21:12
2:1
3:15:12
0:1
6:8:12
1:0
6:7:12
1:0
6:7:12
1:0
8:7:12
2:0
10:20:12
2:1
4:17:12
1:-1
5:13:12
1:0
6:10:12
1:0
6:6:12
1:0
8:9:12
2:0
10:18:12
2:1
9:17:12
2:0
9:17:12
2:0
1:7:12
-1:-1
6:10:11
1:0
8:10:12
2:0
9:18:12
2:1
5:19:12
1:1
6:7:12
1:0
5:18:12
1:1
6:10:12
1:0
8:6:12
2:0
10:17:12
2:0
6:6:12
1:-1
5:20:12
1:1
7:9:12
1:0
8:8:12
2:0
5:16:12
1:0
5:5:12
1:0
9:18:12
2:1
10:18:12
2:1
9:18:12
2:1
0:21:12
-1:1
3:15:12
0:1
8:9:12
2:0
10:18:12
2:1
10:20:12
2:1
2:13:12
0:0
10:17:12
2:0
9:18:12
2:1
10:18:12
2:1
10:19:12
2:1
4:8:12
1:-1
10:18:12
2:1
8:21:12
2:1
11:15:12
2:1
10:20:12
2:1
7:10:12
1:-1
5:17:12
1:1
8:11:12
2:0
10:17:12
2:1
0:17:12
-1:0
3:16:11
0:0
7:7:11
1:0
6:11:12
1:0
8:10:12
2:0
0:17:12
-1:0
5:16:11
1:0
7:9:12
1:0
6:11:12
1:0
9:11:12
2:0
2:13:12
0:0
10:19:12
2:1
6:16:12
1:0
6:7:12
1:0
8:10:12
2:0
5:13:12
1:0
8:9:12
2:0
5:18:12
1:0
6:8:12
1:0
6:10:12
1:0
6:9:12
1:0
4:7:12
1:-1
6:10:12
1:0
6:12:12
1:0
8:6:12
2:0
0:16:12
-1:0
6:13:11
1:0
6:8:12
1:0
6:11:12
1:0
8:7:12
2:0
5:17:12
1:0
0:3:12
-1:-1
7:10:11
1:0
9:20:12
2:1
10:15:12
2:0
10:19:12
2:1
8:9:12
2:-1
9:17:12
2:0
9:18:12
2:1
9:19:12
2:1
0:16:12
-1:0
3:16:11
0:0
6:11:11
1:0
7:6:12
1:0
6:11:12
1:0
6:9:12
1:0
8:7:12
2:0
10:17:12
2:0
9:18:12
2:1
10:18:12
2:1
3:15:12
0:0
9:18:12
2:1
10:17:12
2:0
9:18:12
2:1
10:18:12
2:1
4:12:12
1:0
9:15:12
2:0
5:19:12
1:1
0:11:12
-1:0
7:7:11
1:-1
3:7:11
0:-1
8:14:11
2:0
5:18:12
1:1
6:11:12
1:0
8:10:12
2:0
4:9:12
1:0
5:18:12
1:0
7:8:12
1:0
10:17:12
2:0
9:18:12
2:1
0:6:12
-1:-1
6:11:11
1:0
6:11:12
1:0
7:7:12
1:0
8:13:12
2:0
6:8:12
1:-1
5:17:12
1:1
6:11:12
1:0
8:6:12
2:0
10:17:12
2:0
7:9:12
1:-1
10:19:12
2:1
10:17:12
2:0
10:18:12
2:1
0:16:12
-1:0
9:16:11
2:1
5:19:12
1:1
7:10:12
1:0
4:11:12
1:0
2:7:12
0:0
5:18:12
1:0
7:8:12
1:0
5:8:12
1:0
4:10:12
1:0
2:6:12
0:0
4:18:12
1:0
8:10:12
2:0
8:6:12
2:0
5:18:12
1:0
3:7:12
0:0
9:18:12
2:1
8:19:12
2:0
10:17:12
2:1
10:17:12
2:0
5:8:12
1:-1
8:8:12
2:0
5:11:12
1:0
0:16:12
-1:0
10:46:11
2:-1
1:15:11
-1:0
10:7:10
2:-1
9:14:10
2:0
8:13:11
2:0
5:17:12
1:0
0:8:12
-1:0
8:19:11
2:0
10:17:12
2:1
8:19:12
2:0
9:17:12
2:1
4:11:12
1:0
8:10:12
2:0
9:15:12
2:0
9:18:12
2:1
9:16:12
2:0
6:11:12
1:0
6:10:12
1:0
7:9:12
1:0
6:11:12
1:0
11:15:12
2:0
7:7:12
1:-1
5:7:12
1:0
7:10:12
1:0
7:6:12
1:0
10:17:12
2:0
4:9:12
1:0
9:18:12
2:1
9:18:12
2:1
9:16:12
2:0
9:18:12
2:1
5:5:12
1:-1
5:20:12
1:1
6:11:12
1:0
5:11:12
1:-1
6:7:12
1:0
7:9:12
1:0
4:18:12
1:1
8:8:12
2:0
5:18:12
1:0
7:8:12
1:0
7:6:12
1:0
6:12:12
1:0
8:7:12
2:0
4:19:12
1:1
8:9:12
2:0
5:5:12
1:-1
10:20:12
2:1
9:16:12
2:0
10:19:12
2:1
0:17:12
-1:0
10:16:11
2:0
5:19:12
1:1
9:7:12
2:0
10:19:12
2:1
2:13:12
0:0
9:16:12
2:0
11:18:12
2:1
9:15:12
2:0
10:18:12
2:1
3:8:12
0:0
6:19:12
1:1
7:7:12
1:0
0:7:12
-1:0
7:9:11
1:0
7:6:12
1:0
8:9:12
2:0
10:17:12
2:0
9:18:12
2:1
9:16:12
2:0
6:11:12
1:0
6:12:12
1:0
7:9:12
1:0
2:7:12
0:0
6:11:12
1:0
3:5:12
0:0
10:19:12
2:1
10:17:12
2:0
10:18:12
2:1
10:17:12
2:0
6:8:12
1:0
7:6:12
1:0
5:17:12
1:0
0:10:12
-1:0
8:9:11
2:0
2:11:12
0:0
6:17:12
1:0
7:7:12
1:0
6:12:12
1:0
8:8:12
2:0
2:13:12
0:0
10:17:12
2:0
10:18:12
2:1
0:16:12
-1:0
6:12:11
1:0
3:6:12
0:0
10:19:12
2:1
10:17:12
2:0
4:19:12
1:1
5:10:12
1:0
5:7:12
1:0
10:19:12
2:1
9:16:12
2:0
4:18:12
1:1
8:10:12
2:0
6:7:12
1:-1
9:19:12
2:1
9:18:12
2:0
5:19:12
1:1
7:9:12
1:0
6:9:12
1:0
8:7:12
2:0
5:19:12
1:1
5:7:12
1:-1
0:8:12
-1:0
10:17:11
2:0
10:19:12
2:1
5:16:12
1:0
7:9:12
1:0
7:6:12
1:0
8:9:12
2:0
10:17:12
2:0
9:18:12
2:1
10:17:12
2:0
6:11:12
1:0
6:12:12
1:0
7:9:12
1:0
7:7:12
1:0
6:12:12
1:0
4:7:12
1:0
5:18:12
1:1
6:10:12
1:0
3:6:12
0:-1
6:11:12
1:0
5:7:12
1:0
5:18:12
1:1
9:10:12
2:0
9:16:12
2:0
9:18:12
2:1
5:5:12
1:-1
5:20:12
1:1
7:12:12
1:0
5:17:12
1:1
7:7:12
1:0
7:9:12
1:0
5:18:12
1:1
8:8:12
2:0
5:17:12
1:0
0:8:12
-1:0
5:17:11
1:0
6:11:12
1:0
8:8:12
2:0
10:17:12
2:0
3:21:12
0:0
5:15:12
1:0
6:5:12
1:-1
7:7:12
1:0
6:10:12
1:0
8:5:12
2:0
5:19:12
1:1
2:5:12
0:0
5:17:12
1:0
2:8:12
0:0
7:10:12
1:0
7:7:12
1:0
5:14:12
1:0
6:8:12
1:0
8:8:12
2:0
5:19:12
1:0
6:10:12
1:0
6:6:12
1:0
10:17:12
2:0
10:19:12
2:1
10:17:12
2:0
9:17:12
2:0
5:8:12
1:-1
10:19:12
2:1
5:18:12
1:0
8:8:12
2:0
6:18:12
1:0
5:5:12
1:0
5:19:12
1:1
6:10:12
1:-1
9:8:12
2:0
5:19:12
1:1
5:6:12
1:0
9:18:12
2:1
9:16:12
2:0
8:15:12
2:0
0:15:12
-1:0
10:16:11
2:1
10:18:12
2:1
10:17:12
2:0
10:18:12
2:1
6:12:12
1:0
8:9:12
2:0
10:18:12
2:1
10:20:12
2:1
9:16:12
2:0
3:13:12
0:0
9:17:12
2:0
9:17:12
2:0
10:17:12
2:1
10:17:12
2:0
6:9:12
1:-1
6:7:12
1:0
6:8:12
1:0
8:6:12
2:0
9:16:12
2:0
0:19:12
-1:0
12:13:11
2:1
9:18:12
2:1
9:16:12
2:0
9:18:12
2:1
2:12:12
0:0
9:17:12
2:0
9:18:12
2:1
10:16:12
2:0
8:15:12
2:0
6:8:12
1:-1
7:8:12
1:0
6:11:12
1:-1
3:16:12
0:1
6:11:12
1:0
6:8:12
1:0
9:10:12
2:0
10:18:12
2:1
10:20:12
2:1
9:15:12
2:0
6:9:12
1:-1
9:18:12
2:1
9:17:12
2:0
5:18:12
1:1
8:8:12
2:0
4:6:12
1:-1
6:16:12
1:0
6:10:12
1:0
7:9:12
1:0
10:17:12
2:0
6:7:12
1:-1
9:19:12
2:1
9:18:12
2:0
9:17:12
2:0
9:18:12
2:1
9:7:12
2:-1
12:19:12
2:1
10:19:12
2:1
5:18:12
1:0
0:6:12
-1:0
5:17:11
1:0
0:6:12
-1:0
6:13:11
1:1
10:16:12
2:1
0:13:12
-1:0
4:16:11
1:0
5:12:12
1:0
9:17:12
2:1
8:20:12
2:1
2:11:12
0:0
9:11:12
2:0
3:19:12
0:1
7:9:12
1:0
9:16:12
2:0
4:12:12
1:0
8:7:12
2:0
10:17:12
2:0
5:18:12
1:1
6:9:12
1:0
2:8:12
0:0
9:16:12
2:0
3:18:12
0:1
8:9:12
2:0
10:18:12
2:1
3:11:12
0:0
5:18:12
1:1
8:8:12
2:0
6:15:12
1:0
8:8:12
2:0
8:7:12
2:-1
9:10:12
2:0
10:18:12
2:1
8:16:12
2:0
4:16:12
1:0
5:6:12
1:0
10:20:12
2:1
8:20:12
2:0
10:15:12
2:0
5:17:12
1:0
9:6:12
2:0
10:18:12
2:1
10:18:12
2:0
10:19:12
2:1
5:15:12
1:0
8:7:12
2:0
10:20:12
2:1
8:15:12
2:0
10:18:12
2:1
3:12:12
0:0
5:13:12
1:0
9:9:12
2:-1
7:15:12
1:0
7:7:12
1:0
5:8:12
1:0
8:9:12
2:0
7:7:12
1:0
8:13:12
2:0
10:16:12
2:0
0:45:12
-1:-1
5:16:11
1:0
7:8:12
1:0
6:11:12
1:0
6:11:12
1:0
4:8:12
1:-1
6:8:12
1:0
6:11:12
1:0
8:8:12
2:0
11:19:12
2:1
2:12:12
0:0
9:16:12
2:0
5:18:12
1:0
8:8:12
2:0
10:18:12
2:0
3:9:12
0:0
5:19:12
1:1
9:10:12
2:0
10:18:12
2:1
10:17:12
2:0
5:10:12
1:-1
8:7:12
2:0
9:17:12
2:0
5:17:12
1:0
0:6:12
-1:0
5:10:11
1:0
9:18:12
2:1
10:18:12
2:1
9:18:12
2:1
9:17:12
2:0
6:7:12
1:-1
6:11:12
1:0
7:8:12
1:0
7:8:12
1:0
2:11:12
0:0
5:5:12
1:0
10:19:12
2:1
10:17:12
2:0
10:19:12
2:1
6:16:12
1:0
7:7:12
1:0
8:9:12
2:0
9:18:12
2:1
10:18:12
2:1
0:16:12
-1:0
9:15:11
2:0
10:17:12
2:1
9:18:12
2:0
10:17:12
2:0
0:15:12
-1:0
6:14:11
1:0
8:8:12
2:0
10:19:12
2:1
10:17:12
2:0
2:13:12
0:0
9:18:12
2:1
10:18:12
2:1
5:19:12
1:1
9:6:12
2:0
0:13:12
-1:0
5:17:11
1:1
6:7:12
1:0
9:5:12
2:0
10:17:12
2:1
9:15:12
2:0
5:10:12
1:0
8:10:12
2:0
9:18:12
2:1
10:18:12
2:1
10:20:12
2:1
6:8:12
1:-1
7:7:12
1:0
6:11:12
1:0
5:10:12
1:0
0:18:12
-1:1
4:8:12
1:0
9:19:12
2:1
5:17:12
1:0
6:10:12
1:0
7:7:12
1:0
5:9:12
1:0
9:18:12
2:1
10:18:12
2:1
9:18:12
2:1
10:18:12
2:1
6:7:12
1:-1
6:10:12
1:0
7:8:12
1:0
7:10:12
1:0
4:17:12
1:1
4:4:12
1:0
6:16:12
1:0
6:10:12
1:0
7:7:12
1:0
9:11:12
2:0
3:11:12
0:0
10:18:12
2:1
9:18:12
2:1
10:18:12
2:1
10:20:12
2:1
5:8:12
1:-1
5:19:12
1:1
8:9:12
2:0
10:19:12
2:1
10:17:12
2:0
6:7:12
1:-1
7:8:12
1:0
6:11:12
1:0
8:9:12
2:0
5:20:12
1:1
7:8:12
1:0
6:15:12
1:0
8:9:12
2:0
9:19:12
2:1
0:16:12
-1:0
5:17:11
1:1
8:12:12
2:0
5:19:12
1:1
6:11:12
1:0
2:6:12
0:0
10:18:12
2:1
9:18:12
2:1
10:18:12
2:1
11:18:12
2:1
6:10:12
1:0
6:7:12
1:0
7:10:12
1:0
8:9:12
2:0
5:19:12
1:1
6:7:12
1:0
8:7:12
2:0
5:19:12
1:1
6:12:12
1:0
8:6:12
2:0
3:12:12
0:0
5:18:12
1:1
7:7:12
1:0
6:12:12
1:0
7:9:12
1:0
3:6:12
0:0
9:19:12
2:1
9:17:12
2:0
4:18:12
1:1
0:9:12
-1:0
4:7:11
1:0
10:17:12
2:0
10:18:12
2:0
10:18:12
2:1
9:19:12
2:1
6:9:12
1:-1
4:16:12
1:1
9:9:12
2:0
5:19:12
1:1
0:11:12
-1:-1
9:15:11
2:0
4:19:12
1:-1
10:19:12
2:1
10:17:12
2:0
9:17:12
2:0
10:18:12
2:1
8:8:12
2:-1
5:17:12
1:0
8:8:12
2:0
4:18:12
1:1
7:6:12
1:0
6:5:12
1:-1
6:10:12
1:0
7:8:12
1:0
6:7:12
1:0
6:11:12
1:0
2:5:12
0:0
6:16:12
1:0
6:12:12
1:0
8:4:12
2:0
9:19:12
2:1
5:13:12
1:0
6:7:12
1:0
6:8:12
1:0
7:6:12
1:0
6:7:12
1:0
7:8:12
1:0
5:6:12
1:0
5:18:12
1:1
6:11:12
1:0
3:6:12
0:-1
7:5:12
1:0
6:12:12
1:0
8:7:12
2:0
9:16:12
2:0
10:17:12
2:1
9:14:12
2:0
5:17:12
1:0
5:4:12
1:0
4:17:12
1:1
8:6:12
2:0
1:17:12
-1:1
6:7:12
1:0
7:5:12
1:0
5:4:12
1:0
7:9:12
1:0
7:6:12
1:0
6:6:12
1:0
6:5:12
1:0
6:12:12
1:0
3:6:12
0:0
5:19:12
1:1
6:9:12
1:0
0:5:12
-1:0
6:9:11
1:0
6:9:12
1:0
6:6:12
1:0
8:5:12
2:0
6:8:12
1:0
6:9:12
1:0
6:5:12
1:0
7:5:12
1:0
3:11:12
0:0
6:7:12
1:0
7:7:12
1:0
6:8:12
1:0
9:9:12
2:-1
0:17:12
-1:0
10:17:11
2:1
10:17:12
2:0
10:17:12
2:1
5:17:12
1:0
2:6:12
0:0
6:15:12
1:0
5:10:12
1:0
0:9:12
-1:0
5:12:11
1:0
5:7:12
1:0
7:14:12
1:0
4:13:12
1:0
8:9:12
2:0
10:20:12
2:1
5:9:12
1:-1
9:20:12
2:1
5:16:12
1:0
8:6:12
2:-1
5:18:12
1:0
4:8:12
1:0
5:19:12
1:1
5:11:12
1:0
7:9:12
1:0
6:11:12
1:0
6:7:12
1:0
4:18:12
1:0
7:11:12
1:0
5:18:12
1:1
0:9:12
-1:0
5:15:11
1:0
7:8:12
1:0
10:16:12
2:1
9:18:12
2:1
2:15:12
0:0
10:18:12
2:1
9:18:12
2:1
10:18:12
2:1
5:20:12
1:1
3:6:12
0:0
5:19:12
1:1
6:12:12
1:0
7:7:12
1:0
4:19:12
1:1
6:8:12
1:0
6:12:12
1:0
3:14:12
0:0
3:8:12
0:-1
5:12:12
1:0
6:5:12
1:-1
8:8:12
2:0
8:21:12
2:0
8:15:12
2:0
4:17:12
1:1
5:9:12
1:0
8:7:12
2:0
10:17:12
2:0
9:18:12
2:1
0:17:12
-1:0
10:16:11
2:0
9:19:12
2:1
10:18:12
2:1
9:17:12
2:0
2:12:12
0:0
11:19:12
2:1
9:17:12
2:0
3:19:12
0:1
7:11:12
1:0
4:5:12
1:0
7:24:12
1:1
2:12:12
0:0
6:9:12
1:0
9:20:12
2:1
6:9:12
1:-1
5:6:12
1:0
7:12:12
1:0
8:9:12
2:-1
10:19:12
2:1
5:6:12
1:-1
10:19:12
2:1
10:18:12
2:0
9:18:12
2:1
5:20:12
1:1
6:6:12
1:0
8:17:12
2:0
5:17:12
1:1
5:7:12
1:-1
6:11:12
1:0
5:7:12
1:0
6:12:12
1:0
8:7:12
2:0
11:20:12
2:1
6:15:12
1:0
8:8:12
2:0
3:49:12
0:-1
6:12:12
1:0
6:7:12
1:0
9:9:12
2:0
6:11:12
1:0
2:7:12
0:0
10:7:12
2:0
10:18:12
2:1
10:17:12
2:0
4:14:12
1:0
6:10:12
1:0
11:14:12
2:0
6:19:12
1:1
7:6:12
1:0
0:7:12
-1:0
0:13:11
-1:0
8:5:10
2:0
9:15:11
2:0
6:16:12
1:0
6:7:12
1:0
0:4:12
-1:0
5:15:11
1:0
7:8:12
1:0
7:6:12
1:0
8:7:12
2:0
9:16:12
2:0
5:10:12
1:0
7:4:12
1:0
9:19:12
2:1
6:16:12
1:0
8:7:12
2:0
6:15:12
1:0
3:4:12
0:0
6:16:12
1:0
6:9:12
1:0
8:7:12
2:0
5:19:12
1:1
5:9:12
1:0
9:7:12
2:0
10:20:12
2:1
5:18:12
1:1
6:11:12
1:0
4:8:12
1:0
10:18:12
2:1
10:18:12
2:1
6:16:12
1:0
8:6:12
2:0
0:14:12
-1:0
9:14:11
2:0
10:18:12
2:1
10:18:12
2:1
9:17:12
2:0
5:13:12
1:0
8:8:12
2:0
6:16:12
1:0
8:5:12
2:0
10:17:12
2:1
6:18:12
1:0
6:4:12
1:0
3:7:12
0:-1
6:8:12
1:0
8:5:12
2:0
5:18:12
1:1
7:9:12
1:0
2:6:12
0:0
5:17:12
1:0
8:6:12
2:0
6:16:12
1:0
6:6:12
1:0
8:8:12
2:0
6:8:12
1:-1
8:6:12
2:-1
10:20:12
2:1
9:16:12
2:0
10:17:12
2:1
5:12:12
1:0
6:9:12
1:0
9:4:12
2:0
4:17:12
1:0
9:9:12
2:0
9:17:12
2:0
2:7:12
0:0
9:16:12
2:0
5:17:12
1:0
8:6:12
2:0
5:17:12
1:0
4:5:12
1:0
7:4:12
1:0
8:5:12
2:0
6:19:12
1:1
7:7:12
1:0
6:11:12
1:0
6:8:12
1:0
6:6:12
1:0
8:5:12
2:-1
9:15:12
2:0
9:17:12
2:0
10:17:12
2:1
2:10:12
0:0
9:17:12
2:0
5:17:12
1:0
7:10:12
1:0
7:7:12
1:0
5:7:12
1:0
9:7:12
2:0
10:18:12
2:1
9:19:12
2:1
9:17:12
2:0
1:13:12
-1:0
6:16:11
1:0
8:5:12
2:0
9:16:12
2:0
6:16:12
1:0
8:4:12
2:0
6:9:12
1:0
2:10:12
0:0
7:10:12
1:0
7:7:12
1:0
6:11:12
1:0
7:6:12
1:0
8:10:12
2:0
8:15:12
2:0
5:18:12
1:1
8:9:12
2:0
2:11:12
0:0
3:18:12
0:1
6:12:12
1:0
7:8:12
1:0
9:10:12
2:0
4:11:12
1:0
8:8:12
2:0
10:17:12
2:0
5:18:12
1:1
8:8:12
2:0
4:12:12
1:0
9:16:12
2:0
9:18:12
2:1
9:16:12
2:0
10:18:12
2:1
7:7:12
1:-1
7:9:12
1:0
7:7:12
1:0
6:12:12
1:0
8:8:12
2:0
4:8:12
1:-1
5:15:12
1:0
8:6:12
2:0
5:18:12
1:1
6:10:12
1:0
6:8:12
1:0
6:10:12
1:0
6:10:12
1:0
7:7:12
1:0
6:12:12
1:0
5:5:12
1:0
9:18:12
2:1
5:18:12
1:0
8:8:12
2:0
10:18:12
2:1
6:6:12
1:-1
10:18:12
2:1
10:19:12
2:1
10:17:12
2:0
0:17:12
-1:0
9:14:11
2:0
9:18:12
2:1
10:26:12
2:0
5:20:12
1:0
6:11:12
1:0
0:8:12
-1:0
5:4:11
1:-1
5:17:11
1:1
8:5:12
2:0
4:19:12
1:1
2:11:12
0:0
5:6:12
1:0
10:17:12
2:0
9:19:12
2:1
10:19:12
2:1
5:18:12
1:0
6:7:12
1:0
10:17:12
2:1
9:16:12
2:0
10:18:12
2:1
3:17:12
0:0
4:5:12
1:0
5:17:12
1:0
7:8:12
1:0
8:8:12
2:0
10:17:12
2:0
6:10:12
1:0
5:6:12
1:0
7:8:12
1:0
6:12:12
1:0
8:10:12
2:0
2:15:12
0:0
5:18:12
1:0
6:8:12
1:0
7:5:12
1:0
9:16:12
2:0
6:16:12
1:0
3:3:12
0:0
5:18:12
1:1
8:8:12
2:0
5:18:12
1:1
9:11:12
2:0
5:12:12
1:0
9:7:12
2:0
10:19:12
2:1
10:17:12
2:0
10:19:12
2:1
6:13:12
1:0
6:7:12
1:0
8:7:12
2:0
6:16:12
1:0
8:4:12
2:0
2:17:12
0:0
4:7:12
1:0
5:15:12
1:0
8:7:12
2:0
10:17:12
2:0
10:19:12
2:1
3:8:12
0:0
6:18:12
1:0
8:5:12
2:0
9:16:12
2:0
6:16:12
1:0
7:6:12
1:-1
6:2:12
1:-1
6:7:12
1:0
8:7:12
2:0
5:19:12
1:0
9:9:12
2:0
0:15:12
-1:0
10:18:11
2:1
9:16:12
2:0
5:17:12
1:0
8:6:12
2:0
2:17:12
0:0
6:6:12
1:0
9:9:12
2:0
4:18:12
1:0
6:8:12
1:0
7:9:12
1:0
5:6:12
1:0
5:20:12
1:1
6:11:12
1:0
9:9:12
2:0
3:18:12
0:1
6:5:12
1:0
7:9:12
1:0
9:10:12
2:0
7:15:12
1:0
8:5:12
2:0
7:6:12
1:-1
6:12:12
1:0
9:15:12
2:0
3:15:12
0:1
6:7:12
1:0
2:6:12
0:-1
6:4:12
1:0
6:7:12
1:0
9:8:12
2:0
5:17:12
1:0
8:6:12
2:0
9:16:12
2:0
5:8:12
1:0
6:6:12
1:0
8:8:12
2:0
6:15:12
1:0
8:4:12
2:0
9:16:12
2:0
5:11:12
1:0
6:8:12
1:0
7:7:12
1:0
10:16:12
2:1
5:17:12
1:0
6:7:12
1:0
6:7:12
1:0
6:8:12
1:0
7:4:12
1:0
7:6:12
1:0
8:8:12
2:0
9:17:12
2:0
5:12:12
1:0
8:8:12
2:0
6:16:12
1:0
8:6:12
2:0
5:17:12
1:0
8:7:12
2:0
0:4:12
-1:0
5:16:11
1:0
6:5:12
1:0
5:17:12
1:0
9:8:12
2:0
9:15:12
2:0
4:10:12
1:0
6:6:12
1:0
8:8:12
2:0
5:17:12
1:0
8:6:12
2:0
5:17:12
1:0
6:8:12
1:0
6:5:12
1:0
8:9:12
2:0
9:17:12
2:0
10:18:12
2:1
0:13:12
-1:0
9:15:11
2:0
10:17:12
2:0
6:16:12
1:0
7:5:12
1:0
8:5:12
2:0
3:6:12
0:-1
10:18:12
2:1
9:20:12
2:1
5:17:12
1:0
8:8:12
2:0
3:5:12
0:-1
5:19:12
1:1
7:7:12
1:0
10:15:12
2:0
5:17:12
1:0
5:9:12
1:0
4:1:12
1:-1
4:17:12
1:1
8:8:12
2:0
6:6:12
1:0
8:10:12
2:0
5:12:12
1:0
9:9:12
2:0
5:18:12
1:0
6:7:12
1:0
7:7:12
1:0
6:8:12
1:0
4:9:12
1:0
12:14:12
2:1
0:23:12
-1:1
6:42:12
1:-1
8:16:12
2:0
5:17:12
1:0
6:7:12
1:0
3:19:12
0:1
8:8:12
2:-1
9:17:12
2:0
5:19:12
1:1
6:6:12
1:0
8:6:12
2:0
5:19:12
1:1
8:6:12
2:0
6:16:12
1:0
0:5:12
-1:0
5:15:11
1:0
8:7:12
2:0
10:18:12
2:1
5:18:12
1:1
7:6:12
1:0
7:7:12
1:0
8:7:12
2:0
10:17:12
2:1
6:17:12
1:0
8:7:12
2:0
6:9:12
1:0
6:7:12
1:0
7:5:12
1:0
2:8:12
0:-1
7:5:12
1:0
7:6:12
1:0
5:16:12
1:0
6:5:12
1:0
7:7:12
1:0
10:16:12
2:1
6:15:12
1:0
8:5:12
2:0
5:17:12
1:0
7:4:12
1:0
8:6:12
2:0
10:17:12
2:0
9:20:12
2:1
10:18:12
2:1
7:8:12
1:-1
6:14:12
1:0
9:6:12
2:0
10:17:12
2:0
10:17:12
2:1
6:10:12
1:0
6:7:12
1:0
6:9:12
1:0
2:4:12
0:-1
7:6:12
1:0
8:7:12
2:0
6:15:12
1:0
4:7:12
1:0
3:15:12
0:1
5:9:12
1:0
8:4:12
2:0
6:16:12
1:0
7:10:12
1:0
6:5:12
1:-1
8:8:12
2:0
2:17:12
0:0
8:7:12
2:0
5:19:12
1:1
6:10:12
1:0
7:7:12
1:0
6:7:12
1:0
8:8:12
2:0
10:18:12
2:1
6:15:12
1:0
5:4:12
1:0
5:19:12
1:1
2:5:12
0:-1
7:8:12
1:0
6:9:12
1:0
7:4:12
1:0
7:5:12
1:0
5:6:12
1:0
8:8:12
2:0
10:18:12
2:1
9:18:12
2:1
2:15:12
0:0
10:17:12
2:0
9:17:12
2:0
9:16:12
2:0
6:16:12
1:0
0:8:12
-1:0
5:15:11
1:0
9:5:12
2:0
9:15:12
2:0
9:16:12
2:0
10:17:12
2:0
6:8:12
1:0
7:8:12
1:0
8:9:12
2:0
9:18:12
2:1
10:18:12
2:1
7:8:12
1:-1
7:7:12
1:0
7:7:12
1:0
6:11:12
1:0
7:9:12
1:0
4:11:12
1:0
6:8:12
1:0
7:7:12
1:0
3:5:12
0:-1
7:6:12
1:0
6:9:12
1:0
7:5:12
1:0
4:4:12
1:0
10:17:12
2:0
5:19:12
1:1
6:5:12
1:0
9:9:12
2:0
0:14:12
-1:0
5:15:11
1:0
9:7:12
2:0
10:18:12
2:1
6:17:12
1:0
8:7:12
2:0
7:6:12
1:-1
8:5:12
2:0
10:18:12
2:0
8:15:12
2:0
9:17:12
2:0
2:14:12
0:0
5:16:12
1:0
6:6:12
1:0
4:8:12
1:-1
9:7:12
2:0
10:17:12
2:1
6:10:12
1:0
8:7:12
2:0
9:16:12
2:0
5:17:12
1:0
8:8:12
2:0
10:18:12
2:1
6:5:12
1:-1
7:7:12
1:0
8:6:12
2:0
9:16:12
2:0
5:19:12
1:1
8:5:12
2:0
6:5:12
1:-1
6:7:12
1:0
8:7:12
2:0
5:17:12
1:0
6:5:12
1:0
6:8:12
1:0
7:8:12
1:0
6:5:12
1:0
7:6:12
1:0
0:8:12
-1:0
8:5:11
2:0
5:15:12
1:0
6:8:12
1:0
6:6:12
1:0
7:5:12
1:0
10:18:12
2:1
9:16:12
2:0
10:17:12
2:1
9:17:12
2:0
6:4:12
1:-1
8:5:12
2:0
0:17:12
-1:1
6:7:12
1:0
8:7:12
2:0
5:17:12
1:0
5:6:12
1:0
6:8:12
1:0
7:7:12
1:0
7:5:12
1:0
7:6:12
1:0
6:9:12
1:0
7:5:12
1:0
4:4:12
1:0
10:17:12
2:0
10:18:12
2:1
5:18:12
1:0
4:13:12
1:0
5:8:12
1:0
8:9:12
2:0
2:8:12
0:0
6:16:12
1:0
7:13:12
1:0
10:18:12
2:1
10:17:12
2:0
3:12:12
0:0
10:20:12
2:1
6:22:12
1:0
10:10:12
2:0
10:17:12
2:1
2:8:12
0:0
3:16:12
0:0
6:9:12
1:0
8:7:12
2:0
10:17:12
2:1
6:17:12
1:0
6:6:12
1:0
9:8:12
2:-1
6:16:12
1:0
6:6:12
1:0
8:8:12
2:0
5:17:12
1:0
7:5:12
1:0
7:8:12
1:0
6:10:12
1:0
11:15:12
2:1
9:16:12
2:0
0:13:12
-1:0
9:15:11
2:0
8:12:12
2:0
6:8:12
1:0
7:6:12
1:0
8:7:12
2:0
2:8:12
0:0
10:17:12
2:1
5:18:12
1:0
8:6:12
2:0
5:17:12
1:0
6:8:12
1:0
6:6:12
1:0
8:5:12
2:-1
9:17:12
2:0
10:16:12
2:0
10:19:12
2:1
6:12:12
1:0
6:5:12
1:0
7:8:12
1:0
10:16:12
2:1
9:16:12
2:0
10:17:12
2:1
6:7:12
1:-1
4:9:12
1:-1
8:6:12
2:0
4:18:12
1:0
6:10:12
1:0
2:9:12
0:0
5:17:12
1:0
9:7:12
2:0
10:19:12
2:1
6:16:12
1:0
9:8:12
2:0
6:5:12
1:-1
3:6:12
0:-1
6:9:12
1:0
9:7:12
2:0
4:18:12
1:1
6:6:12
1:0
2:6:12
0:0
8:19:12
2:0
11:15:12
2:1
5:17:12
1:0
6:8:12
1:0
2:7:12
0:0
9:17:12
2:0
10:18:12
2:1
9:18:12
2:1
10:18:12
2:1
7:5:12
1:-1
8:9:12
2:0
5:15:12
1:0
9:6:12
2:0
10:17:12
2:0
10:17:12
2:1
3:6:12
0:-1
4:18:12
1:1
6:8:12
1:0
7:9:12
1:0
8:10:12
2:0
5:13:12
1:0
7:6:12
1:0
6:10:12
1:0
4:16:12
1:1
6:6:12
1:0
6:7:12
1:0
3:3:12
0:0
9:16:12
2:0
10:17:12
2:0
10:17:12
2:1
6:17:12
1:0
2:7:12
0:0
5:17:12
1:0
6:9:12
1:0
4:14:12
1:0
6:7:12
1:0
7:5:12
1:0
7:4:12
1:0
7:5:12
1:0
4:7:12
1:-1
7:5:12
1:0
7:4:12
1:0
8:9:12
2:0
5:15:12
1:0
0:5:12
-1:0
5:16:11
1:0
8:6:12
2:0
5:17:12
1:0
5:7:12
1:0
8:7:12
2:0
2:13:12
0:0
12:13:12
2:0
6:16:12
1:0
7:6:12
1:0
3:13:12
0:0
6:9:12
1:0
2:4:12
0:0
6:16:12
1:0
6:8:12
1:0
8:6:12
2:0
7:12:12
1:0
5:18:12
1:0
6:4:12
1:0
10:18:12
2:1
4:17:12
1:0
6:8:12
1:0
10:17:12
2:1
5:4:12
1:-1
6:6:12
1:0
7:5:12
1:0
7:4:12
1:0
8:9:12
2:0
5:16:12
1:0
7:6:12
1:0
5:6:12
1:0
7:8:12
1:-1
10:17:12
2:1
5:18:12
1:0
8:6:12
2:0
2:12:12
0:0
6:16:12
1:0
6:7:12
1:0
7:4:12
1:0
4:7:12
1:0
6:8:12
1:0
5:6:12
1:0
6:4:12
1:0
9:17:12
2:0
6:16:12
1:0
6:9:12
1:0
13:13:12
2:1
2:7:12
0:-1
10:17:12
2:1
5:18:12
1:0
6:7:12
1:0
7:5:12
1:0
10:17:12
2:1
6:6:12
1:-1
8:5:12
2:-1
9:17:12
2:0
10:16:12
2:0
10:19:12
2:1
6:12:12
1:0
6:5:12
1:0
7:9:12
1:0
11:15:12
2:1
9:16:12
2:0
3:38:12
0:-1
5:9:12
1:0
7:5:12
1:0
4:6:12
1:0
8:7:12
2:0
9:16:12
2:0
9:15:12
2:0
0:17:12
-1:0
5:17:11
1:1
9:6:12
2:0
10:17:12
2:0
7:16:12
1:0
6:8:12
1:0
6:4:12
1:0
7:5:12
1:0
4:16:12
1:0
7:8:12
1:0
3:14:12
0:0
9:8:12
2:0
6:7:12
1:-1
6:6:12
1:0
8:8:12
2:0
5:17:12
1:0
8:4:12
2:0
9:16:12
2:0
5:11:12
1:0
8:5:12
2:0
10:18:12
2:1
9:15:12
2:0
4:16:12
1:0
9:8:12
2:0
4:8:12
1:-1
5:15:12
1:0
6:6:12
1:0
8:8:12
2:0
6:15:12
1:0
8:4:12
2:0
7:8:12
1:0
8:7:12
2:0
6:16:12
1:0
8:5:12
2:0
10:17:12
2:1
9:16:12
2:0
6:6:12
1:-1
9:6:12
2:0
10:18:12
2:1
6:16:12
1:0
8:7:12
2:0
5:15:12
1:0
6:5:12
1:0
7:6:12
1:0
7:7:12
1:0
6:7:12
1:0
0:4:12
-1:0
8:9:11
2:0
2:14:12
0:0
9:17:12
2:0
10:17:12
2:1
8:15:12
2:0
5:18:12
1:1
0:5:12
-1:0
6:15:11
1:0
6:4:12
1:0
7:6:12
1:0
8:8:12
2:0
5:17:12
1:0
8:6:12
2:0
6:4:12
1:-1
8:8:12
2:0
5:19:12
1:1
8:10:12
2:0
9:17:12
2:0
5:9:12
1:0
8:6:12
2:0
6:16:12
1:0
8:5:12
2:0
10:17:12
2:1
8:15:12
2:0
4:5:12
1:-1
9:16:12
2:0
6:16:12
1:0
8:4:12
2:0
9:16:12
2:0
6:15:12
1:0
7:4:12
1:0
7:6:12
1:0
8:8:12
2:0
6:16:12
1:0
8:5:12
2:-1
10:17:12
2:1
7:6:12
1:-1
10:17:12
2:1
7:14:12
1:0
6:7:12
1:0
9:5:12
2:0
6:13:12
1:0
9:6:12
2:0
5:17:12
1:0
6:6:12
1:0
9:8:12
2:0
10:19:12
2:1
6:10:12
1:0
6:8:12
1:0
7:9:12
1:0
8:10:12
2:0
5:17:12
1:0
6:8:12
1:0
9:7:12
2:0
9:18:12
2:1
7:14:12
1:0
8:5:12
2:-1
9:15:12
2:0
6:6:12
1:-1
5:6:12
1:0
8:8:12
2:0
6:16:12
1:0
9:6:12
2:0
10:17:12
2:0
5:6:12
1:-1
6:5:12
1:0
8:8:12
2:0
9:16:12
2:0
10:17:12
2:1
0:16:12
-1:0
6:15:11
1:0
6:4:12
1:0
7:6:12
1:0
8:8:12
2:0
5:17:12
1:0
8:6:12
2:0
6:4:12
1:-1
6:7:12
1:0
6:6:12
1:0
7:6:12
1:0
9:7:12
2:0
6:17:12
1:0
0:5:12
-1:0
5:17:11
1:1
8:6:12
2:0
5:18:12
1:0
6:6:12
1:0
9:8:12
2:0
2:9:12
0:0
5:15:12
1:0
9:8:12
2:0
5:17:12
1:0
8:6:12
2:-1
5:17:12
1:0
2:4:12
0:0
10:17:12
2:0
10:17:12
2:1
9:16:12
2:0
10:18:12
2:1
5:11:12
1:0
8:5:12
2:0
10:18:12
2:1
9:15:12
2:0
4:17:12
1:0
9:8:12
2:0
6:6:12
1:-1
9:7:12
2:0
9:17:12
2:0
5:17:12
1:0
5:8:12
1:0
6:6:12
1:0
6:5:12
1:0
7:8:12
1:0
6:7:12
1:0
8:5:12
2:0
10:17:12
2:1
9:16:12
2:0
5:6:12
1:-1
6:17:12
1:0
6:7:12
1:0
7:4:12
1:0
7:6:12
1:0
8:8:12
2:0
5:10:12
1:0
6:6:12
1:0
8:8:12
2:0
6:15:12
1:0
8:4:12
2:0
9:16:12
2:0
3:22:12
0:0
4:20:12
1:0
6:6:12
1:0
8:4:12
2:0
10:17:12
2:1
10:16:12
2:0
0:19:12
-1:1
6:6:12
1:-1
6:6:12
1:0
6:9:12
1:0
9:16:12
2:0
9:16:12
2:0
3:15:12
0:1
0:5:12
-1:0
5:16:11
1:0
6:8:12
1:0
11:14:12
2:0
10:19:12
2:1
6:16:12
1:0
7:6:12
1:0
5:17:12
1:0
2:7:12
0:-1
8:5:12
2:0
11:18:12
2:1
0:13:12
-1:0
5:12:11
1:0
9:7:12
2:0
9:17:12
2:0
6:16:12
1:0
8:7:12
2:0
6:9:12
1:0
6:6:12
1:0
9:5:12
2:0
9:16:12
2:0
6:16:12
1:0
7:9:12
1:0
5:9:12
1:0
6:7:12
1:0
7:5:12
1:0
8:8:12
2:0
6:16:12
1:0
8:4:12
2:0
0:14:12
-1:0
9:14:11
2:0
10:18:12
2:1
7:11:12
1:0
9:19:12
2:1
0:14:12
-1:0
5:16:11
1:1
7:9:12
1:0
11:4:12
2:0
5:18:12
1:1
6:8:12
1:0
6:7:12
1:0
6:5:12
1:0
7:5:12
1:0
9:7:12
2:0
9:17:12
2:1
6:17:12
1:0
9:7:12
2:0
7:5:12
1:-1
9:7:12
2:0
9:16:12
2:0
9:18:12
2:1
9:16:12
2:0
5:10:12
1:0
8:7:12
2:0
10:16:12
2:1
6:16:12
1:0
6:6:12
1:0
8:5:12
2:0
5:9:12
1:0
7:10:12
1:0
4:14:12
1:0
6:8:12
1:0
9:9:12
2:0
5:17:12
1:0
6:4:12
1:0
6:7:12
1:0
8:7:12
2:0
9:16:12
2:0
5:17:12
1:0
6:8:12
1:0
6:5:12
1:0
7:6:12
1:0
5:8:12
1:0
6:7:12
1:0
7:6:12
1:0
8:7:12
2:0
0:13:12
-1:0
9:17:11
2:1
10:17:12
2:1
9:17:12
2:0
5:17:12
1:0
6:8:12
1:0
4:7:12
1:0
11:14:12
2:0
10:19:12
2:1
7:13:12
1:0
7:6:12
1:0
0:7:12
-1:0
5:13:11
1:0
8:6:12
2:0
5:18:12
1:1
6:7:12
1:0
7:5:12
1:0
0:7:12
-1:0
9:14:11
2:0
5:17:12
1:0
9:8:12
2:0
9:16:12
2:0
5:17:12
1:0
3:4:12
0:0
10:19:12
2:1
2:16:12
0:0
8:6:12
2:0
5:17:12
1:0
6:7:12
1:0
6:4:12
1:0
9:8:12
2:0
10:17:12
2:1
9:16:12
2:0
9:16:12
2:0
6:10:12
1:0
6:9:12
1:0
0:15:12
-1:1
7:8:12
1:0
9:15:12
2:0
10:17:12
2:1
5:5:12
1:-1
5:17:12
1:0
6:6:12
1:0
7:8:12
1:0
8:5:12
2:0
5:18:12
1:0
6:7:12
1:0
8:5:12
2:0
3:17:12
0:0
6:7:12
1:0
6:8:12
1:0
7:4:12
1:0
4:4:12
1:0
9:15:12
2:0
5:20:12
1:1
6:5:12
1:0
8:9:12
2:0
9:16:12
2:0
5:5:12
1:-1
5:19:12
1:1
3:6:12
0:-1
7:5:12
1:0
9:16:12
2:0
0:13:12
-1:0
5:16:11
1:1
9:8:12
2:0
6:15:12
1:0
8:5:12
2:0
10:17:12
2:1
6:9:12
1:-1
8:6:12
2:0
10:15:12
2:0
7:16:12
1:0
8:4:12
2:0
9:16:12
2:0
5:5:12
1:-1
9:7:12
2:0
9:16:12
2:0
9:15:12
2:0
5:17:12
1:0
0:4:12
-1:0
9:14:11
2:0
10:17:12
2:1
10:17:12
2:0
9:19:12
2:1
0:12:12
-1:0
5:16:11
1:1
6:8:12
1:0
8:5:12
2:0
10:17:12
2:1
10:16:12
2:0
2:38:12
0:0
4:13:12
1:-1
10:7:12
2:0
10:17:12
2:1
9:17:12
2:0
6:16:12
1:0
0:6:12
-1:-1
6:16:11
1:0
6:7:12
1:0
8:8:12
2:0
9:16:12
2:0
6:16:12
1:0
2:7:12
0:0
10:15:12
2:0
6:16:12
1:0
6:9:12
1:0
9:5:12
2:0
10:16:12
2:1
5:7:12
1:-1
7:7:12
1:0
8:5:12
2:0
10:17:12
2:1
6:16:12
1:0
6:5:12
1:0
6:5:12
1:0
8:7:12
2:0
10:16:12
2:0
6:17:12
1:0
8:7:12
2:0
0:17:12
-1:1
5:5:12
1:0
7:7:12
1:0
6:8:12
1:0
8:5:12
2:0
10:16:12
2:0
10:17:12
2:1
6:6:12
1:-1
6:5:12
1:0
8:9:12
2:0
5:16:12
1:0
7:6:12
1:0
6:9:12
1:0
0:6:12
-1:-1
5:15:11
1:0
6:6:12
1:0
9:7:12
2:0
5:17:12
1:0
6:5:12
1:0
6:8:12
1:0
6:5:12
1:0
7:6:12
1:0
8:5:12
2:0
6:16:12
1:0
6:7:12
1:0
8:5:12
2:0
2:10:12
0:0
9:15:12
2:0
6:17:12
1:0
8:7:12
2:0
6:15:12
1:0
6:7:12
1:0
6:6:12
1:0
8:8:12
2:0
5:17:12
1:0
7:5:12
1:0
6:8:12
1:0
6:9:12
1:0
2:4:12
0:-1
7:5:12
1:0
6:16:12
1:0
6:8:12
1:0
7:4:12
1:0
7:8:12
1:0
6:9:12
1:0
2:3:12
0:0
5:17:12
1:0
6:6:12
1:0
8:7:12
2:0
9:16:12
2:0
9:16:12
2:0
3:7:12
0:-1
5:18:12
1:1
6:8:12
1:0
9:7:12
2:0
5:19:12
1:1
6:5:12
1:0
6:8:12
1:0
7:7:12
1:0
8:5:12
2:0
10:17:12
2:1
6:16:12
1:0
9:5:12
2:0
3:8:12
0:0
6:16:12
1:0
6:6:12
1:0
7:6:12
1:0
8:8:12
2:0
5:17:12
1:0
2:3:12
0:0
5:17:12
1:0
6:6:12
1:0
8:5:12
2:0
9:17:12
2:0
10:14:12
2:0
4:7:12
1:-1
6:16:12
1:0
6:7:12
1:0
7:5:12
1:0
7:6:12
1:0
7:5:12
1:0
8:8:12
2:0
6:5:12
1:-1
8:5:12
2:0
10:17:12
2:1
6:16:12
1:0
6:5:12
1:0
8:8:12
2:0
3:8:12
0:0
10:17:12
2:1
5:18:12
1:1
6:9:12
1:0
7:5:12
1:0
7:7:12
1:0
6:8:12
1:-1
8:5:12
2:0
5:17:12
1:0
6:6:12
1:0
6:9:12
1:0
8:5:12
2:0
3:13:12
0:0
6:8:12
1:0
7:10:12
1:0
9:16:12
2:0
4:17:12
1:1
6:6:12
1:0
2:4:12
0:0
6:16:12
1:0
6:9:12
1:0
7:5:12
1:0
6:7:12
1:0
8:9:12
2:0
2:11:12
0:0
4:17:12
1:0
9:7:12
2:0
9:19:12
2:1
5:14:12
1:0
8:8:12
2:0
6:4:12
1:-1
8:6:12
2:0
9:17:12
2:0
5:14:12
1:0
8:6:12
2:0
2:16:12
0:0
6:8:12
1:0
5:17:12
1:0
6:5:12
1:0
6:7:12
1:0
7:7:12
1:0
8:5:12
2:0
6:8:12
1:0
8:7:12
2:0
5:17:12
1:0
6:5:12
1:0
6:8:12
1:0
8:7:12
2:0
0:14:12
-1:0
6:16:11
1:0
6:6:12
1:0
8:4:12
2:0
8:7:12
2:0
5:17:12
1:0
0:4:12
-1:0
5:17:11
1:1
6:7:12
1:0
8:6:12
2:0
6:16:12
1:0
6:9:12
1:0
0:6:12
-1:-1
5:15:11
1:0
6:6:12
1:0
8:8:12
2:0
5:17:12
1:0
6:5:12
1:0
6:8:12
1:0
6:5:12
1:0
7:6:12
1:0
8:5:12
2:0
6:16:12
1:0
8:5:12
2:0
9:16:12
2:0
4:7:12
1:-1
7:6:12
1:0
3:13:12
0:0
6:9:12
1:0
7:4:12
1:0
8:5:12
2:0
4:18:12
1:0
6:7:12
1:0
0:5:12
-1:0
5:15:11
1:0
8:7:12
2:0
5:17:12
1:0
0:5:12
-1:0
6:10:11
1:0
7:6:12
1:0
5:4:12
1:0
6:16:12
1:0
6:7:12
1:0
6:6:12
1:0
3:13:12
0:0
7:11:12
1:0
6:3:12
1:-1
7:7:12
1:0
3:15:12
0:1
6:6:12
1:0
7:6:12
1:-1
10:17:12
2:0
6:8:12
1:0
4:5:12
1:0
4:12:12
1:0
2:13:12
0:0
6:8:12
1:0
7:6:12
1:0
7:5:12
1:0
8:5:12
2:0
9:16:12
2:0
10:17:12
2:0
10:18:12
2:1
0:15:12
-1:0
5:16:11
1:1
6:7:12
1:0
7:5:12
1:0
7:4:12
1:0
8:9:12
2:0
5:15:12
1:0
6:4:12
1:0
6:7:12
1:0
7:7:12
1:0
10:17:12
2:0
9:16:12
2:0
5:18:12
1:0
5:4:12
1:0
6:7:12
1:0
5:8:12
1:0
5:10:12
1:0
4:12:12
1:0
7:9:12
1:0
6:4:12
1:-1
7:7:12
1:0
10:16:12
2:1
9:14:12
2:0
5:20:12
1:1
6:6:12
1:0
8:7:12
2:0
5:17:12
1:0
6:8:12
1:0
6:7:12
1:0
6:5:12
1:0
6:7:12
1:0
7:3:12
1:-1
6:8:12
1:0
8:6:12
2:0
5:17:12
1:1
8:9:12
2:-1
5:16:12
1:0
6:4:12
1:0
8:6:12
2:0
10:17:12
2:1
6:17:12
1:0
8:7:12
2:0
0:14:12
-1:0
10:11:11
2:0
6:15:12
1:0
6:6:12
1:0
0:5:12
-1:0
6:11:11
1:0
5:10:12
1:0
7:5:12
1:0
6:16:12
1:0
7:9:12
1:0
8:4:12
2:0
5:15:12
1:0
0:8:12
-1:0
5:14:11
1:0
8:5:12
2:0
10:17:12
2:0
9:16:12
2:0
6:17:12
1:0
4:4:12
1:0
4:17:12
1:0
8:7:12
2:0
5:19:12
1:1
5:8:12
1:0
2:11:12
0:0
6:16:12
1:0
5:7:12
1:0
8:5:12
2:0
9:16:12
2:0
6:16:12
1:0
6:4:12
1:0
6:7:12
1:0
9:9:12
2:0
10:17:12
2:0
4:17:12
1:0
8:7:12
2:0
7:5:12
1:-1
6:8:12
1:0
7:8:12
1:0
5:16:12
1:0
9:6:12
2:-1
5:17:12
1:0
6:4:12
1:0
8:5:12
2:0
10:17:12
2:1
6:15:12
1:0
6:6:12
1:0
9:7:12
2:0
4:7:12
1:-1
5:17:12
1:0
6:5:12
1:0
6:8:12
1:0
2:7:12
0:-1
6:4:12
1:0
7:7:12
1:0
5:4:12
1:0
9:18:12
2:1
9:16:12
2:0
6:16:12
1:0
7:8:12
1:0
3:9:12
0:0
9:7:12
2:0
6:15:12
1:0
8:6:12
2:0
9:16:12
2:0
4:16:12
1:0
4:5:12
1:0
6:8:12
1:0
6:8:12
1:0
7:5:12
1:0
7:5:12
1:0
6:8:12
1:0
6:9:12
1:0
6:4:12
1:0
8:5:12
2:0
6:16:12
1:0
6:7:12
1:0
8:5:12
2:-1
10:17:12
2:1
4:5:12
1:-1
6:16:12
1:0
6:6:12
1:0
8:8:12
2:0
5:17:12
1:0
6:5:12
1:0
6:6:12
1:0
8:6:12
2:0
9:16:12
2:0
5:18:12
1:0
3:7:12
0:-1
7:4:12
1:0
2:6:12
0:0
3:17:12
0:0
6:7:12
1:0
7:6:12
1:0
8:7:12
2:0
8:16:12
2:0
4:5:12
1:0
9:7:12
2:0
5:17:12
1:0
8:7:12
2:0
9:16:12
2:0
6:16:12
1:0
6:4:12
1:0
8:6:12
2:0
10:16:12
2:0
10:17:12
2:0
5:17:12
1:0
0:9:12
-1:0
4:13:11
1:0
1:25:12
-1:-1
7:25:11
1:-1
4:15:11
1:1
6:6:12
1:0
9:7:12
2:0
6:8:12
1:-1
0:6:12
-1:0
6:7:11
1:0
8:6:12
2:0
6:16:12
1:0
9:5:12
2:0
6:12:12
1:0
7:5:12
1:0
10:17:12
2:0
10:17:12
2:1
8:15:12
2:0
0:17:12
-1:0
10:14:11
2:0
10:18:12
2:1
6:16:12
1:0
8:6:12
2:0
6:16:12
1:0
6:5:12
1:0
9:6:12
2:0
10:17:12
2:1
9:17:12
2:0
9:16:12
2:0
6:16:12
1:0
5:4:12
1:0
10:18:12
2:1
9:17:12
2:0
10:16:12
2:0
10:19:12
2:1
5:6:12
1:-1
7:5:12
1:0
8:8:12
2:0
6:15:12
1:0
8:4:12
2:0
9:16:12
2:0
6:7:12
1:-1
0:5:12
-1:0
8:6:11
2:0
6:16:12
1:0
9:5:12
2:0
10:17:12
2:0
5:9:12
1:0
8:8:12
2:0
5:17:12
1:0
8:6:12
2:0
4:17:12
1:0
6:7:12
1:0
5:5:12
1:0
9:6:12
2:0
6:15:12
1:0
7:7:12
1:0
10:16:12
2:1
6:15:12
1:0
2:3:12
0:0
5:17:12
1:0
9:5:12
2:0
5:17:12
1:0
9:8:12
2:0
5:17:12
1:0
3:5:12
0:0
10:18:12
2:1
5:17:12
1:0
6:5:12
1:0
7:5:12
1:0
5:17:12
1:0
4:6:12
1:0
6:16:12
1:0
8:6:12
2:0
6:15:12
1:0
8:4:12
2:0
9:16:12
2:0
6:5:12
1:-1
8:7:12
2:-1
4:18:12
1:1
6:8:12
1:0
7:8:12
1:0
7:4:12
1:0
7:5:12
1:0
7:6:12
1:0
8:6:12
2:0
10:18:12
2:1
5:17:12
1:0
6:5:12
1:0
6:4:12
1:0
8:8:12
2:0
6:16:12
1:0
6:6:12
1:0
8:5:12
2:0
5:17:12
1:0
0:5:12
-1:0
5:15:11
1:0
8:6:12
2:0
6:16:12
1:0
8:5:12
2:0
10:17:12
2:1
6:9:12
1:0
7:4:12
1:0
9:17:12
2:0
6:16:12
1:0
8:4:12
2:0
9:16:12
2:0
6:7:12
1:-1
8:6:12
2:0
10:17:12
2:0
9:16:12
2:0
9:16:12
2:0
5:12:12
1:0
9:8:12
2:0
4:20:12
1:1
9:8:12
2:0
6:16:12
1:0
8:4:12
2:0
6:8:12
1:0
6:8:12
1:0
6:8:12
1:0
7:5:12
1:0
8:8:12
2:0
5:17:12
1:0
0:4:12
-1:0
10:14:11
2:0
8:16:12
2:0
5:17:12
1:0
8:6:12
2:0
5:17:12
1:0
5:6:12
1:0
8:6:12
2:0
5:15:12
1:0
9:7:12
2:0
9:17:12
2:0
5:17:12
1:0
4:6:12
1:0
3:16:12
0:0
8:6:12
2:0
9:15:12
2:0
10:18:12
2:1
0:13:12
-1:0
5:14:11
1:0
6:5:12
1:0
6:8:12
1:0
9:9:12
2:0
5:17:12
1:0
0:5:12
-1:0
10:14:11
2:0
9:17:12
2:0
6:16:12
1:0
9:6:12
2:0
6:16:12
1:0
3:4:12
0:0
9:19:12
2:1
6:15:12
1:0
8:5:12
2:0
9:16:12
2:0
6:16:12
1:0
5:4:12
1:0
10:18:12
2:1
6:16:12
1:0
8:6:12
2:0
9:16:12
2:0
6:11:12
1:0
7:5:12
1:0
7:6:12
1:0
8:8:12
2:0
6:16:12
1:0
8:6:12
2:0
0:14:12
-1:0
0:14:11
-1:0
8:7:10
2:0
6:16:11
1:0
6:7:12
1:0
8:5:12
2:0
6:9:12
1:0
8:8:12
2:0
5:17:12
1:0
9:6:12
2:0
9:16:12
2:0
5:17:12
1:0
6:4:12
1:0
8:5:12
2:0
8:13:12
2:0
3:19:12
0:0
8:3:12
2:-1
10:20:12
2:1
6:16:12
1:0
7:5:12
1:0
7:5:12
1:0
8:8:12
2:0
5:17:12
1:0
7:5:12
1:0
4:17:12
1:0
0:8:12
-1:-1
6:16:11
1:0
6:4:12
1:0
7:8:12
1:0
7:8:12
1:0
7:4:12
1:0
7:6:12
1:0
7:6:12
1:0
6:6:12
1:0
7:5:12
1:0
8:8:12
2:0
6:15:12
1:0
8:4:12
2:0
3:13:12
0:0
6:7:12
1:0
6:7:12
1:0
8:5:12
2:0
5:19:12
1:1
5:7:12
1:0
6:5:12
1:0
4:10:12
1:0
3:13:12
0:0
6:5:12
1:0
7:6:12
1:0
8:8:12
2:0
10:17:12
2:0
5:8:12
1:-1
6:11:12
1:0
4:13:12
1:0
8:4:12
2:0
9:16:12
2:0
5:17:12
1:0
8:5:12
2:0
9:16:12
2:0
6:16:12
1:0
6:7:12
1:0
8:6:12
2:0
2:13:12
0:0
7:21:12
1:0
2:14:12
0:1
5:12:12
1:0
11:14:12
2:0
0:12:12
-1:0
6:15:11
1:0
7:5:12
1:0
9:16:12
2:0
6:16:12
1:0
8:4:12
2:0
4:11:12
1:0
6:6:12
1:0
7:7:12
1:0
8:5:12
2:0
10:17:12
2:1
7:19:12
1:0
5:5:12
1:0
7:5:12
1:0
5:17:12
1:0
6:7:12
1:0
3:16:12
0:1
6:7:12
1:0
4:7:12
1:-1
7:5:12
1:0
9:16:12
2:0
6:16:12
1:0
8:5:12
2:0
10:17:12
2:1
3:6:12
0:-1
10:17:12
2:1
6:17:12
1:0
5:7:12
1:0
7:4:12
1:0
8:6:12
2:0
3:7:12
0:-1
10:18:12
2:1
9:16:12
2:0
6:16:12
1:0
8:5:12
2:0
5:17:12
1:0
6:7:12
1:0
6:7:12
1:0
8:5:12
2:0
5:19:12
1:1
6:6:12
1:0
0:4:12
-1:0
5:6:11
1:0
6:9:12
1:0
5:9:12
1:0
8:7:12
2:0
9:16:12
2:0
0:16:12
-1:0
5:15:11
1:0
6:7:12
1:0
8:6:12
2:0
7:22:12
1:1
12:11:12
2:0
3:4:12
0:-1
9:16:12
2:0
5:17:12
1:0
6:8:12
1:0
12:15:12
2:1
2:14:12
0:0
5:17:12
1:0
8:6:12
2:0
9:16:12
2:0
5:17:12
1:0
8:6:12
2:0
4:8:12
1:0
8:7:12
2:0
6:16:12
1:0
6:9:12
1:0
3:13:12
0:0
8:4:12
2:0
6:11:12
1:0
6:8:12
1:0
7:4:12
1:0
5:15:12
1:0
9:8:12
2:0
6:15:12
1:0
3:5:12
0:-1
5:6:12
1:0
6:7:12
1:0
6:8:12
1:0
11:15:12
2:1
6:15:12
1:0
6:5:12
1:0
7:5:12
1:0
9:16:12
2:0
6:16:12
1:0
8:5:12
2:0
10:17:12
2:1
3:6:12
0:-1
10:17:12
2:1
6:17:12
1:0
6:7:12
1:0
7:4:12
1:0
7:6:12
1:0
7:6:12
1:0
7:6:12
1:0
5:8:12
1:0
7:7:12
1:0
6:9:12
1:0
8:4:12
2:0
3:13:12
0:0
6:7:12
1:0
9:6:12
2:0
10:17:12
2:1
5:18:12
1:0
9:6:12
2:0
7:4:12
1:0
4:4:12
1:0
6:16:12
1:0
6:7:12
1:0
8:5:12
2:0
10:17:12
2:1
2:16:12
0:0
6:4:12
1:0
8:7:12
2:0
6:15:12
1:0
8:4:12
2:0
9:16:12
2:0
0:21:12
-1:0
2:12:11
0:0
9:4:11
2:0
10:18:12
2:1
9:16:12
2:0
10:15:12
2:0
4:8:12
1:-1
9:16:12
2:0
10:17:12
2:1
9:16:12
2:0
11:18:12
2:1
5:8:12
1:0
8:7:12
2:0
6:16:12
1:0
3:13:12
0:0
3:8:12
0:-1
3:12:12
0:-1
5:9:12
1:-1
7:4:12
1:0
8:5:12
2:0
7:5:12
1:-1
8:6:12
2:0
10:16:12
2:0
10:18:12
2:1
6:16:12
1:0
8:6:12
2:0
5:5:12
1:0
7:8:12
1:0
8:5:12
2:0
10:17:12
2:1
10:17:12
2:0
0:14:12
-1:0
4:14:11
1:0
7:8:12
1:0
3:14:12
0:0
7:5:12
1:0
7:6:12
1:0
6:9:12
1:0
6:4:12
1:0
8:7:12
2:0
11:17:12
2:1
10:18:12
2:1
9:17:12
2:0
6:9:12
1:0
8:6:12
2:0
9:19:12
2:1
9:17:12
2:1
9:17:12
2:0
0:14:12
-1:0
5:14:11
1:0
7:4:12
1:0
7:6:12
1:0
5:15:12
1:0
9:8:12
2:0
0:14:12
-1:0
5:14:11
1:0
8:5:12
2:0
3:16:12
0:0
6:8:12
1:0
8:7:12
2:0
5:13:12
1:0
6:6:12
1:0
6:9:12
1:0
7:5:12
1:0
7:5:12
1:0
6:7:12
1:0
6:9:12
1:0
3:6:12
0:0
4:16:12
1:1
6:6:12
1:0
4:7:12
1:-1
9:6:12
2:0
6:17:12
1:0
3:5:12
0:0
10:17:12
2:1
5:18:12
1:0
8:6:12
2:0
9:16:12
2:0
6:16:12
1:0
6:5:12
1:0
8:4:12
2:0
11:17:12
2:1
8:16:12
2:0
9:16:12
2:0
6:11:12
1:0
8:7:12
2:0
5:17:12
1:0
6:5:12
1:0
8:9:12
2:0
8:18:12
2:0
6:7:12
1:0
6:9:12
1:0
9:7:12
2:0
9:16:12
2:0
8:21:12
2:1
4:15:12
1:0
6:4:12
1:0
9:7:12
2:0
5:17:12
1:0
6:5:12
1:0
8:6:12
2:0
10:17:12
2:0
6:8:12
1:0
8:5:12
2:0
10:17:12
2:1
5:16:12
1:0
6:6:12
1:0
6:7:12
1:0
7:6:12
1:0
8:6:12
2:0
10:18:12
2:1
5:17:12
1:0
6:6:12
1:0
7:5:12
1:0
6:8:12
1:0
6:9:12
1:0
6:6:12
1:0
8:6:12
2:-1
5:18:12
1:1
7:7:12
1:0
5:10:12
1:0
6:8:12
1:0
7:6:12
1:0
7:6:12
1:0
6:8:12
1:0
9:7:12
2:0
0:14:12
-1:0
5:15:11
1:0
9:7:12
2:0
9:16:12
2:0
6:16:12
1:0
6:9:12
1:0
3:4:12
0:0
9:19:12
2:1
10:15:12
2:0
9:16:12
2:0
5:18:12
1:1
0:5:12
-1:0
5:16:11
1:1
6:5:12
1:0
1:9:12
-1:0
8:6:11
2:0
9:16:12
2:0
6:16:12
1:0
5:5:12
1:0
10:17:12
2:1
6:16:12
1:0
6:9:12
1:0
9:5:12
2:0
0:14:12
-1:0
9:14:11
2:0
5:18:12
1:1
5:8:12
1:-1
7:11:12
1:0
4:16:12
1:1
5:5:12
1:0
8:9:12
2:0
5:17:12
1:0
8:7:12
2:0
10:15:12
2:0
5:17:12
1:0
7:5:12
1:0
8:9:12
2:0
0:12:12
-1:0
9:6:11
2:0
10:17:12
2:0
0:14:12
-1:0
5:15:11
1:0
6:7:12
1:0
6:9:12
1:0
8:4:12
2:0
5:15:12
1:0
6:10:12
1:0
6:5:12
1:0
8:6:12
2:0
10:15:12
2:0
5:18:12
1:0
9:6:12
2:0
6:14:12
1:0
6:9:12
1:0
9:5:12
2:0
10:17:12
2:1
8:15:12
2:0
7:14:12
1:0
6:4:12
1:0
9:7:12
2:0
5:19:12
1:1
4:6:12
1:-1
9:9:12
2:0
10:17:12
2:1
7:6:12
1:-1
7:7:12
1:0
8:7:12
2:0
6:16:12
1:0
7:8:12
1:0
9:7:12
2:0
6:8:12
1:0
7:9:12
1:0
4:17:12
1:1
4:6:12
1:-1
8:6:12
2:0
3:18:12
0:-1
6:5:12
1:0
6:8:12
1:0
3:7:12
0:0
11:14:12
2:0
6:16:12
1:0
6:9:12
1:0
8:4:12
2:0
5:15:12
1:0
5:8:12
1:0
8:7:12
2:-1
8:14:12
2:0
9:16:12
2:0
8:20:12
2:1
0:10:12
-1:0
9:15:11
2:0
10:17:12
2:1
9:17:12
2:0
10:16:12
2:0
0:19:12
-1:1
0:16:12
-1:0
8:7:11
2:0
5:17:12
1:0
6:5:12
1:0
8:9:12
2:0
0:12:12
-1:0
10:16:11
2:1
10:19:12
2:1
10:17:12
2:1
9:17:12
2:0
0:15:12
-1:0
10:15:11
2:1
10:18:12
2:1
8:15:12
2:0
4:18:12
1:1
6:6:12
1:0
6:5:12
1:0
0:6:12
-1:0
7:7:11
1:-1
8:7:11
2:0
6:15:12
1:0
6:7:12
1:0
7:6:12
1:0
5:4:12
1:0
5:10:12
1:-1
9:18:12
2:1
11:14:12
2:0
6:16:12
1:0
4:8:12
1:0
11:15:12
2:0
5:17:12
1:0
9:7:12
2:0
10:17:12
2:1
0:13:12
-1:0
10:14:11
2:0
6:17:12
1:0
8:5:12
2:0
10:18:12
2:1
6:16:12
1:0
6:5:12
1:0
7:6:12
1:0
7:7:12
1:0
7:7:12
1:0
6:6:12
1:0
3:13:12
0:0
0:10:12
-1:0
11:11:11
2:0
5:20:12
1:1
6:6:12
1:0
9:7:12
2:0
5:17:12
1:0
4:6:12
1:0
7:7:12
1:0
8:7:12
2:0
10:18:12
2:0
10:17:12
2:0
2:15:12
0:0
7:8:12
1:0
5:17:12
1:0
8:7:12
2:0
10:16:12
2:0
5:19:12
1:1
4:3:12
1:0
6:16:12
1:0
4:7:12
1:0
6:7:12
1:0
6:9:12
1:0
9:7:12
2:0
5:6:12
1:-1
3:9:12
0:-1
8:8:12
2:0
5:17:12
1:0
6:5:12
1:0
6:8:12
1:0
2:7:12
0:0
6:16:12
1:0
6:7:12
1:0
6:9:12
1:0
7:4:12
1:0
8:5:12
2:0
3:13:12
0:0
2:7:12
0:0
6:8:12
1:0
8:7:12
2:0
8:7:12
2:0
9:16:12
2:0
6:7:12
1:-1
8:6:12
2:0
10:17:12
2:0
10:17:12
2:1
8:15:12
2:0
0:15:12
-1:0
10:15:11
2:1
10:18:12
2:1
9:16:12
2:0
6:16:12
1:0
6:7:12
1:0
3:5:12
0:0
11:12:12
2:0
8:14:12
2:0
9:16:12
2:0
10:17:12
2:0
2:10:12
0:0
2:17:12
0:0
7:7:12
1:0
10:17:12
2:1
6:17:12
1:0
6:10:12
1:0
7:2:12
1:-1
9:17:12
2:0
10:16:12
2:1
9:15:12
2:0
5:18:12
1:1
3:5:12
0:0
2:15:12
0:0
8:8:12
2:0
10:16:12
2:0
10:17:12
2:1
0:13:12
-1:0
9:15:11
2:0
4:18:12
1:1
8:7:12
2:0
4:19:12
1:1
7:6:12
1:0
2:5:12
0:0
9:16:12
2:0
9:16:12
2:0
6:16:12
1:0
7:9:12
1:0
9:7:12
2:0
5:6:12
1:-1
7:7:12
1:0
8:7:12
2:0
10:17:12
2:1
6:17:12
1:0
8:7:12
2:0
6:7:12
1:-1
3:7:12
0:-1
8:6:12
2:0
8:8:12
2:0
7:20:12
1:0
11:13:12
2:1
4:5:12
1:-1
4:17:12
1:0
5:13:12
1:0
10:10:12
2:0
9:19:12
2:1
2:7:12
0:0
9:13:12
2:0
10:11:12
2:0
11:8:12
2:0
10:12:12
2:1
12:11:12
2:0
5:2:12
1:-1
12:14:12
2:1
10:17:12
2:0
6:16:12
1:0
0:32:12
-1:-1
0:26:11
-1:-1
6:7:10
1:-1
7:6:10
1:0
10:7:11
2:0
9:17:12
2:0
2:15:12
0:0
7:9:12
1:0
7:4:12
1:0
7:6:12
1:0
5:8:12
1:0
7:8:12
1:0
7:6:12
1:0
6:7:12
1:0
0:6:12
-1:0
9:15:11
2:0
10:18:12
2:1
5:17:12
1:0
8:6:12
2:-1
9:16:12
2:0
4:7:12
1:-1
10:17:12
2:0
10:16:12
2:1
7:17:12
1:0
11:15:12
2:1
6:8:12
1:0
8:7:12
2:0
9:17:12
2:0
5:17:12
1:0
6:9:12
1:-1
11:14:12
2:0
6:5:12
1:-1
8:7:12
2:0
5:16:12
1:0
6:6:12
1:0
7:8:12
1:0
9:6:12
2:0
5:9:12
1:0
7:5:12
1:0
6:16:12
1:0
8:5:12
2:0
10:16:12
2:1
10:17:12
2:0
3:5:12
0:-1
10:19:12
2:1
9:16:12
2:0
9:16:12
2:0
9:19:12
2:1
2:6:12
0:0
10:17:12
2:0
10:17:12
2:1
8:15:12
2:0
9:18:12
2:1
6:11:12
1:0
7:6:12
1:0
7:7:12
1:0
6:6:12
1:0
6:8:12
1:0
7:7:12
1:0
4:12:12
1:0
9:7:12
2:0
5:17:12
1:0
8:6:12
2:0
2:17:12
0:0
6:5:12
1:0
7:5:12
1:0
6:7:12
1:0
6:8:12
1:0
8:4:12
2:0
5:19:12
1:1
5:8:12
1:0
7:6:12
1:0
7:4:12
1:0
7:8:12
1:0
6:9:12
1:0
8:4:12
2:0
9:16:12
2:0
6:16:12
1:0
3:4:12
0:0
9:16:12
2:0
5:17:12
1:0
10:6:12
2:0
10:18:12
2:1
6:14:12
1:0
8:6:12
2:0
10:17:12
2:1
5:17:12
1:0
2:5:12
0:-1
8:6:12
2:0
6:8:12
1:0
8:7:12
2:0
9:17:12
2:0
5:17:12
1:0
8:6:12
2:0
10:17:12
2:0
6:5:12
1:-1
8:7:12
2:0
5:16:12
1:0
6:6:12
1:0
2:8:12
0:-1
8:5:12
2:0
2:9:12
0:0
5:17:12
1:0
6:8:12
1:0
8:5:12
2:0
10:17:12
2:1
9:16:12
2:0
3:5:12
0:-1
10:19:12
2:1
9:16:12
2:0
9:16:12
2:0
4:19:12
1:1
2:4:12
0:0
10:17:12
2:0
10:17:12
2:1
8:15:12
2:0
10:18:12
2:1
6:11:12
1:0
7:6:12
1:0
7:7:12
1:0
6:6:12
1:0
9:8:12
2:0
9:18:12
2:0
3:6:12
0:-1
5:18:12
1:1
6:5:12
1:0
8:7:12
2:0
5:17:12
1:0
5:5:12
1:0
7:5:12
1:0
8:7:12
2:0
6:16:12
1:0
8:4:12
2:0
10:15:12
2:0
7:16:12
1:0
7:4:12
1:0
7:6:12
1:0
8:8:12
2:0
6:16:12
1:0
6:6:12
1:0
7:6:12
1:0
0:12:12
-1:0
6:16:11
1:0
8:4:12
2:0
5:17:12
1:0
6:5:12
1:0
3:6:12
0:-1
8:8:12
2:0
4:7:12
1:-1
10:17:12
2:0
10:17:12
2:1
8:15:12
2:0
10:18:12
2:1
6:8:12
1:0
8:7:12
2:0
9:17:12
2:0
10:17:12
2:1
8:15:12
2:0
5:17:12
1:0
6:4:12
1:0
9:8:12
2:0
9:16:12
2:0
4:17:12
1:0
8:8:12
2:0
5:10:12
1:0
8:9:12
2:0
6:15:12
1:0
5:6:12
1:0
0:5:12
-1:0
6:8:11
1:0
7:7:12
1:0
7:5:12
1:0
9:16:12
2:0
6:16:12
1:0
8:5:12
2:0
9:19:12
2:1
3:7:12
0:-1
2:14:12
0:1
6:11:12
1:0
6:16:12
1:0
7:6:12
1:-1
9:16:12
2:0
3:13:12
0:-1
6:8:12
1:0
7:2:12
1:-1
9:7:12
2:0
10:17:12
2:0
9:18:12
2:1
6:16:12
1:0
0:6:12
-1:0
9:15:11
2:0
7:13:12
1:0
8:5:12
2:-1
10:17:12
2:1
4:17:12
1:0
6:6:12
1:0
8:7:12
2:0
6:15:12
1:0
8:5:12
2:0
9:19:12
2:1
0:13:12
-1:0
9:15:11
2:0
10:17:12
2:1
5:16:12
1:0
9:5:12
2:0
10:19:12
2:1
4:5:12
1:-1
4:17:12
1:0
6:8:12
1:0
8:7:12
2:0
10:16:12
2:1
1:14:12
-1:0
4:13:11
1:0
6:4:12
1:0
2:6:12
0:-1
8:8:12
2:0
5:17:12
1:0
8:6:12
2:0
6:7:12
1:-1
6:9:12
1:0
8:4:12
2:0
9:16:12
2:0
6:16:12
1:0
8:4:12
2:0
7:5:12
1:-1
8:8:12
2:0
9:15:12
2:0
8:14:12
2:0
9:17:12
2:0
5:12:12
1:0
8:7:12
2:0
9:16:12
2:0
5:17:12
1:0
9:5:12
2:0
5:17:12
1:0
3:5:12
0:0
10:15:12
2:0
0:16:12
-1:0
6:8:11
1:0
8:6:12
2:0
9:16:12
2:0
5:5:12
1:-1
10:17:12
2:0
10:17:12
2:1
8:16:12
2:0
10:17:12
2:0
7:5:12
1:-1
8:7:12
2:0
10:16:12
2:0
10:20:12
2:1
7:13:12
1:0
0:5:12
-1:0
4:16:11
1:0
7:8:12
1:0
7:6:12
1:0
6:7:12
1:0
8:6:12
2:0
2:14:12
0:0
11:14:12
2:0
11:13:12
2:0
6:17:12
1:0
8:7:12
2:0
5:17:12
1:0
5:4:12
1:0
5:19:12
1:1
6:6:12
1:0
7:7:12
1:0
8:6:12
2:0
5:17:12
1:0
4:4:12
1:0
8:14:12
2:0
10:17:12
2:1
6:17:12
1:0
8:5:12
2:0
0:11:12
-1:0
9:13:11
2:0
9:15:12
2:0
6:16:12
1:0
8:5:12
2:0
9:16:12
2:0
4:7:12
1:-1
6:15:12
1:0
8:4:12
2:0
4:16:12
1:0
9:8:12
2:0
0:17:12
-1:0
5:15:11
1:0
9:5:12
2:0
5:17:12
1:0
8:9:12
2:0
8:18:12
2:0
2:9:12
0:0
8:7:12
2:0
9:16:12
2:0
5:17:12
1:0
8:6:12
2:0
5:17:12
1:0
2:4:12
0:0
10:17:12
2:1
7:11:12
1:0
6:16:12
1:0
7:6:12
1:0
8:6:12
2:0
4:11:12
1:-1
11:15:12
2:1
11:14:12
2:0
6:15:12
1:0
7:5:12
1:0
4:13:12
1:0
6:5:12
1:0
6:8:12
1:0
7:5:12
1:0
9:8:12
2:0
9:16:12
2:0
0:16:12
-1:0
9:15:11
2:0
7:14:12
1:0
8:5:12
2:-1
10:17:12
2:1
4:17:12
1:0
6:6:12
1:0
8:7:12
2:0
6:15:12
1:0
8:5:12
2:0
10:17:12
2:1
0:15:12
-1:0
9:15:11
2:0
10:17:12
2:1
5:16:12
1:0
9:5:12
2:0
10:19:12
2:1
4:5:12
1:-1
4:17:12
1:0
6:8:12
1:0
8:7:12
2:0
10:16:12
2:1
1:14:12
-1:0
4:13:11
1:0
6:4:12
1:0
2:6:12
0:-1
8:8:12
2:0
5:17:12
1:0
8:6:12
2:0
6:8:12
1:-1
5:14:12
1:0
5:6:12
1:0
8:8:12
2:0
6:16:12
1:0
8:4:12
2:0
7:5:12
1:-1
7:9:12
1:0
8:4:12
2:0
9:15:12
2:0
6:18:12
1:0
6:8:12
1:0
6:4:12
1:0
7:6:12
1:0
8:8:12
2:0
5:17:12
1:0
8:6:12
2:0
5:17:12
1:0
0:12:12
-1:-1
5:32:11
1:-1
8:6:11
2:0
9:15:12
2:0
5:19:12
1:1
6:6:12
1:0
0:8:12
-1:0
5:6:11
1:0
8:5:12
2:0
5:18:12
1:1
6:6:12
1:0
8:5:12
2:0
9:17:12
2:0
6:4:12
1:-1
7:7:12
1:0
7:6:12
1:0
5:5:12
1:0
6:9:12
1:0
7:5:12
1:0
8:4:12
2:0
4:5:12
1:-1
8:8:12
2:0
9:16:12
2:0
10:17:12
2:1
6:15:12
1:0
0:5:12
-1:0
10:16:11
2:1
10:18:12
2:1
6:17:12
1:0
8:7:12
2:0
9:14:12
2:0
4:5:12
1:-1
8:8:12
2:0
5:18:12
1:1
6:6:12
1:0
6:6:12
1:0
6:8:12
1:0
6:5:12
1:0
6:9:12
1:0
10:15:12
2:0
10:16:12
2:1
9:16:12
2:0
2:15:12
0:0
7:5:12
1:0
6:16:12
1:0
6:8:12
1:0
9:7:12
2:0
10:17:12
2:1
6:11:12
1:0
9:7:12
2:0
10:18:12
2:1
6:17:12
1:0
8:7:12
2:0
9:15:12
2:0
4:5:12
1:-1
9:9:12
2:0
5:17:12
1:0
9:5:12
2:0
5:18:12
1:1
7:5:12
1:0
6:5:12
1:0
7:6:12
1:0
8:8:12
2:0
6:16:12
1:0
6:6:12
1:0
6:9:12
1:0
2:5:12
0:-1
7:6:12
1:0
10:17:12
2:0
9:17:12
2:0
9:15:12
2:0
6:16:12
1:0
5:6:12
1:0
6:7:12
1:0
6:8:12
1:0
6:9:12
1:0
8:4:12
2:0
5:15:12
1:0
3:7:12
0:-1
8:6:12
2:0
9:16:12
2:0
6:16:12
1:0
9:7:12
2:0
5:17:12
1:0
2:4:12
0:0
8:15:12
2:0
9:16:12
2:0
10:17:12
2:0
6:15:12
1:0
0:5:12
-1:-1
9:13:11
2:0
9:15:12
2:0
5:17:12
1:0
7:10:12
1:0
3:13:12
0:0
3:8:12
0:0
9:18:12
2:1
11:13:12
2:0
9:18:12
2:0
10:18:12
2:1
2:6:12
0:-1
5:17:12
1:0
7:6:12
1:0
6:9:12
1:0
7:5:12
1:0
8:5:12
2:0
6:14:12
1:0
6:7:12
1:0
7:5:12
1:0
10:17:12
2:1
6:15:12
1:0
9:8:12
2:0
2:9:12
0:0
5:9:12
1:0
7:5:12
1:0
7:5:12
1:0
6:7:12
1:0
6:9:12
1:0
7:4:12
1:0
2:5:12
0:0
6:16:12
1:0
6:7:12
1:0
6:6:12
1:0
6:7:12
1:0
6:8:12
1:0
0:4:12
-1:-1
6:16:11
1:0
10:7:12
2:0
5:17:12
1:0
6:5:12
1:0
6:8:12
1:0
8:7:12
2:0
6:6:12
1:-1
7:7:12
1:0
8:8:12
2:0
6:16:12
1:0
6:5:12
1:0
7:6:12
1:0
2:8:12
0:-1
5:17:12
1:0
6:6:12
1:0
8:7:12
2:0
5:19:12
1:1
6:6:12
1:0
7:7:12
1:0
8:6:12
2:0
9:16:12
2:0
6:16:12
1:0
9:7:12
2:0
5:17:12
1:0
2:4:12
0:-1
8:15:12
2:0
9:16:12
2:0
10:17:12
2:0
9:18:12
2:1
2:13:12
0:0
11:14:12
2:0
6:16:12
1:0
7:7:12
1:0
8:7:12
2:0
9:14:12
2:0
4:5:12
1:-1
8:8:12
2:0
5:18:12
1:1
6:6:12
1:0
6:6:12
1:0
6:8:12
1:0
6:5:12
1:0
6:9:12
1:0
10:15:12
2:0
4:14:12
1:0
9:5:12
2:0
6:16:12
1:0
3:6:12
0:-1
5:6:12
1:0
7:6:12
1:0
6:9:12
1:0
9:7:12
2:0
10:17:12
2:1
2:13:12
0:0
5:16:12
1:0
8:8:12
2:0
9:16:12
2:0
6:15:12
1:0
7:4:12
1:0
2:7:12
0:-1
6:14:12
1:0
0:13:12
-1:0
1:9:11
-1:-1
5:8:10
1:-1
7:6:10
1:0
6:20:11
1:0
4:11:12
1:0
4:6:12
1:0
7:8:12
1:0
6:9:12
1:0
8:4:12
2:0
2:15:12
0:0
8:9:12
2:0
7:7:12
1:-1
6:7:12
1:0
8:7:12
2:0
5:18:12
1:1
8:6:12
2:0
7:11:12
1:0
2:8:12
0:0
8:7:12
2:0
10:16:12
2:1
7:13:12
1:0
8:4:12
2:-1
6:17:12
1:0
4:5:12
1:-1
6:16:12
1:0
8:5:12
2:0
10:17:12
2:1
6:15:12
1:0
6:6:12
1:0
5:4:12
1:0
7:8:12
1:0
7:7:12
1:0
7:4:12
1:0
0:7:12
-1:0
7:9:11
1:0
2:10:12
0:0
5:16:12
1:0
8:6:12
2:0
6:16:12
1:0
6:5:12
1:0
8:9:12
2:0
2:10:12
0:0
6:16:12
1:0
6:8:12
1:0
8:6:12
2:0
7:12:12
1:0
10:17:12
2:0
4:6:12
1:-1
6:15:12
1:0
6:12:12
1:0
2:13:12
0:0
8:6:12
2:0
0:15:12
-1:0
5:14:11
1:0
6:5:12
1:0
7:8:12
1:0
10:16:12
2:1
6:17:12
1:0
6:5:12
1:0
8:8:12
2:0
5:16:12
1:0
6:5:12
1:0
6:8:12
1:0
8:7:12
2:0
2:14:12
0:0
9:17:12
2:0
6:16:12
1:0
6:5:12
1:0
10:5:12
2:0
6:17:12
1:0
6:4:12
1:0
7:5:12
1:0
6:16:12
1:0
6:7:12
1:0
8:5:12
2:0
10:17:12
2:1
2:11:12
0:0
4:15:12
1:0
6:5:12
1:0
9:8:12
2:0
10:17:12
2:0
10:17:12
2:1
4:6:12
1:-1
4:17:12
1:0
6:6:12
1:0
8:8:12
2:0
6:16:12
1:0
8:5:12
2:0
6:9:12
1:0
6:9:12
1:0
8:4:12
2:0
5:15:12
1:0
9:9:12
2:0
5:15:12
1:0
6:6:12
1:0
5:4:12
1:0
5:17:12
1:0
6:6:12
1:0
7:8:12
1:0
8:8:12
2:0
5:17:12
1:0
6:4:12
1:0
7:7:12
1:0
6:9:12
1:0
7:4:12
1:0
9:5:12
2:0
6:16:12
1:0
4:7:12
1:0
6:7:12
1:0
8:7:12
2:0
6:15:12
1:0
6:7:12
1:0
8:7:12
2:0
2:13:12
0:0
10:17:12
2:0
10:17:12
2:1
8:15:12
2:0
10:17:12
2:1
6:14:12
1:0
6:7:12
1:0
8:5:12
2:0
6:16:12
1:0
6:13:12
1:0
2:14:12
0:1
6:5:12
1:0
8:7:12
2:0
5:17:12
1:0
6:5:12
1:0
9:8:12
2:0
6:16:12
1:0
2:6:12
0:0
9:17:12
2:0
9:15:12
2:0
10:17:12
2:1
6:17:12
1:0
7:6:12
1:0
6:5:12
1:0
7:6:12
1:0
6:9:12
1:0
8:4:12
2:0
2:16:12
0:0
7:9:12
1:0
6:4:12
1:0
8:6:12
2:0
10:18:12
2:1
10:18:12
2:0
10:18:12
2:0
3:13:12
0:0
2:12:12
0:0
7:5:12
1:0
6:9:12
1:0
0:6:12
-1:0
5:6:11
1:0
7:4:12
1:0
8:7:12
2:0
10:17:12
2:0
10:15:12
2:0
9:17:12
2:0
6:16:12
1:0
6:4:12
1:0
9:7:12
2:0
10:17:12
2:1
9:17:12
2:0
10:14:12
2:0
8:11:12
2:0
5:6:12
1:0
8:8:12
2:0
6:16:12
1:0
9:5:12
2:0
7:22:12
1:1
1:8:12
-1:0
6:7:11
1:0
6:9:12
1:0
9:7:12
2:0
10:16:12
2:1
5:19:12
1:0
6:6:12
1:0
6:6:12
1:0
8:6:12
2:0
8:8:12
2:0
5:17:12
1:0
6:5:12
1:0
6:8:12
1:0
7:7:12
1:0
0:20:12
-1:-1
5:24:11
1:-1
9:9:11
2:0
5:17:12
1:0
8:6:12
2:0
6:7:12
1:-1
8:5:12
2:0
6:16:12
1:0
6:8:12
1:0
7:8:12
1:0
7:6:12
1:0
5:13:12
1:0
8:8:12
2:0
6:16:12
1:0
8:5:12
2:0
10:17:12
2:1
9:16:12
2:0
6:7:12
1:-1
9:7:12
2:0
6:17:12
1:0
6:6:12
1:0
7:6:12
1:0
7:8:12
1:0
0:6:12
-1:0
9:15:11
2:0
9:16:12
2:0
6:16:12
1:0
8:6:12
2:0
5:17:12
1:0
2:4:12
0:0
0:16:12
-1:0
6:8:11
1:0
9:7:12
2:0
5:17:12
1:0
9:8:12
2:0
6:9:12
1:0
6:8:12
1:0
7:4:12
1:0
7:6:12
1:0
8:8:12
2:0
5:17:12
1:0
8:6:12
2:0
6:6:12
1:-1
9:5:12
2:0
6:17:12
1:0
8:6:12
2:0
5:17:12
1:0
7:4:12
1:0
7:7:12
1:-1
8:7:12
2:0
5:15:12
1:0
8:5:12
2:0
10:17:12
2:1
8:15:12
2:0
4:6:12
1:-1
9:16:12
2:0
6:16:12
1:0
8:4:12
2:0
9:16:12
2:0
6:15:12
1:0
6:4:12
1:0
7:6:12
1:0
6:8:12
1:0
8:7:12
2:0
5:17:12
1:0
6:7:12
1:0
6:6:12
1:0
7:5:12
1:0
9:18:12
2:1
5:17:12
1:0
7:7:12
1:0
8:5:12
2:0
2:6:12
0:-1
6:15:12
1:0
6:6:12
1:0
6:7:12
1:0
8:8:12
2:0
6:16:12
1:0
6:4:12
1:0
9:6:12
2:0
5:17:12
1:0
6:6:12
1:0
9:7:12
2:0
6:16:12
1:0
6:4:12
1:0
6:7:12
1:0
9:8:12
2:0
5:17:12
1:0
8:6:12
2:0
9:16:12
2:0
5:12:12
1:0
6:5:12
1:0
7:8:12
1:-1
5:13:12
1:0
6:6:12
1:0
8:8:12
2:0
0:14:12
-1:0
9:15:11
2:0
4:17:12
1:1
10:5:12
2:0
5:17:12
1:0
9:8:12
2:0
6:9:12
1:0
6:8:12
1:0
3:4:12
0:-1
7:6:12
1:0
8:8:12
2:0
5:17:12
1:0
8:6:12
2:0
7:5:12
1:-1
6:9:12
1:0
8:4:12
2:0
4:17:12
1:0
9:8:12
2:0
9:17:12
2:0
6:4:12
1:-1
0:6:12
-1:0
6:7:11
1:0
6:3:12
1:0
6:8:12
1:0
9:8:12
2:0
0:14:12
-1:0
5:16:11
1:1
6:8:12
1:0
8:6:12
2:0
11:18:12
2:1
5:17:12
1:0
6:4:12
1:0
7:5:12
1:0
8:6:12
2:-1
4:16:12
1:0
6:7:12
1:0
8:5:12
2:0
0:15:12
-1:0
5:15:11
1:0
6:5:12
1:0
8:8:12
2:0
6:16:12
1:0
8:6:12
2:0
0:14:12
-1:0
9:14:11
2:0
6:17:12
1:0
8:6:12
2:0
6:15:12
1:0
8:4:12
2:0
6:9:12
1:0
9:8:12
2:0
10:17:12
2:1
9:16:12
2:0
9:15:12
2:0
5:17:12
1:0
6:5:12
1:0
2:8:12
0:-1
7:8:12
1:0
7:4:12
1:0
7:6:12
1:0
8:8:12
2:0
5:12:12
1:0
7:7:12
1:0
10:17:12
2:1
9:17:12
2:0
5:17:12
1:0
6:8:12
1:0
6:5:12
1:0
9:4:12
2:0
10:19:12
2:1
9:17:12
2:0
9:16:12
2:0
5:13:12
1:0
6:8:12
1:0
7:4:12
1:0
7:6:12
1:0
8:8:12
2:0
5:17:12
1:0
8:6:12
2:0
4:8:12
1:-1
2:12:12
0:0
7:6:12
1:0
8:8:12
2:0
6:16:12
1:0
8:4:12
2:0
7:7:12
1:-1
9:5:12
2:0
9:17:12
2:0
9:16:12
2:0
5:17:12
1:0
8:6:12
2:0
6:6:12
1:-1
9:4:12
2:0
6:17:12
1:0
3:10:12
0:0
5:19:12
1:0
6:7:12
1:0
7:6:12
1:0
8:8:12
2:0
4:4:12
1:-1
10:17:12
2:0
5:17:12
1:0
6:6:12
1:0
7:5:12
1:0
9:16:12
2:0
6:7:12
1:-1
9:17:12
2:0
10:17:12
2:1
8:15:12
2:0
5:18:12
1:1
3:6:12
0:0
3:13:12
0:0
6:7:12
1:0
7:6:12
1:0
8:8:12
2:0
9:17:12
2:0
3:6:12
0:-1
4:18:12
1:1
7:7:12
1:0
8:6:12
2:0
5:17:12
1:0
7:8:12
1:0
6:5:12
1:0
9:8:12
2:0
6:16:12
1:0
8:4:12
2:0
9:16:12
2:0
9:15:12
2:0
4:6:12
1:-1
6:6:12
1:0
8:8:12
2:0
5:17:12
1:0
8:6:12
2:0
5:17:12
1:0
6:5:12
1:0
6:6:12
1:0
7:8:12
1:0
4:13:12
1:0
6:7:12
1:0
8:5:12
2:0
2:13:12
0:0
6:4:12
1:0
5:10:12
1:0
11:12:12
2:0
8:18:12
2:0
4:17:12
1:1
2:4:12
0:0
9:16:12
2:0
9:18:12
2:0
10:15:12
2:0
9:18:12
2:0
3:13:12
0:0
8:7:12
2:0
9:15:12
2:0
9:17:12
2:0
10:17:12
2:1
7:16:12
1:0
5:3:12
1:0
5:18:12
1:1
9:7:12
2:0
9:16:12
2:0
10:17:12
2:1
3:9:12
0:0
9:6:12
2:0
10:17:12
2:1
8:14:12
2:0
10:18:12
2:1
2:14:12
0:0
6:16:12
1:0
8:5:12
2:0
7:22:12
1:1
11:10:12
2:0
0:18:12
-1:1
9:15:12
2:0
5:17:12
1:0
8:6:12
2:0
8:19:12
2:0
3:14:12
0:0
6:4:12
1:0
7:6:12
1:0
6:8:12
1:0
7:6:12
1:0
5:17:12
1:0
9:7:12
2:0
3:8:12
0:-1
6:6:12
1:0
6:8:12
1:0
6:7:12
1:0
8:5:12
2:0
10:17:12
2:1
6:11:12
1:0
6:4:12
1:0
7:6:12
1:0
8:8:12
2:0
5:17:12
1:0
8:6:12
2:0
0:15:12
-1:0
6:15:11
1:0
8:5:12
2:0
5:17:12
1:0
6:7:12
1:0
8:5:12
2:0
6:11:12
1:0
7:6:12
1:0
7:5:12
1:0
8:8:12
2:0
4:17:12
1:0
7:6:12
1:0
0:5:12
-1:-1
9:17:11
2:1
5:19:12
1:1
7:6:12
1:0
5:16:12
1:0
6:6:12
1:0
2:5:12
0:0
5:15:12
1:0
6:9:12
1:0
8:4:12
2:0
3:17:12
0:0
6:8:12
1:0
3:4:12
0:-1
10:17:12
2:1
8:17:12
2:0
11:15:12
2:1
5:17:12
1:0
0:5:12
-1:0
9:15:11
2:0
5:19:12
1:1
6:6:12
1:0
7:7:12
1:0
8:6:12
2:0
0:13:12
-1:0
4:14:11
1:0
6:6:12
1:0
8:8:12
2:0
9:16:12
2:0
10:17:12
2:0
4:5:12
1:-1
8:7:12
2:0
7:21:12
1:0
2:14:12
0:1
5:12:12
1:0
12:11:12
2:0
5:6:12
1:-1
8:7:12
2:0
10:17:12
2:1
9:16:12
2:0
9:15:12
2:0
2:11:12
0:0
9:16:12
2:0
6:16:12
1:0
8:4:12
2:0
9:16:12
2:0
9:15:12
2:0
4:6:12
1:-1
6:6:12
1:0
8:6:12
2:0
3:17:12
0:0
6:7:12
1:0
6:6:12
1:0
6:6:12
1:0
7:6:12
1:0
9:18:12
2:1
6:16:12
1:0
8:5:12
2:0
10:15:12
2:0
4:5:12
1:-1
6:6:12
1:0
8:5:12
2:0
10:18:12
2:1
8:16:12
2:0
5:17:12
1:0
6:7:12
1:0
6:8:12
1:0
8:4:12
2:0
0:27:12
-1:0
5:25:11
1:-1
4:15:11
1:0
6:5:12
1:0
6:4:12
1:0
8:14:12
2:0
2:17:12
0:0
0:5:12
-1:0
5:9:11
1:-1
7:7:11
1:0
7:4:12
1:0
5:7:12
1:0
7:9:12
1:0
8:5:12
2:0
9:17:12
2:0
6:16:12
1:0
5:4:12
1:0
6:16:12
1:0
9:7:12
2:0
10:19:12
2:1
6:16:12
1:0
6:7:12
1:0
5:7:12
1:0
8:7:12
2:0
9:16:12
2:0
8:20:12
2:0
3:15:12
0:1
6:6:12
1:0
7:7:12
1:0
8:5:12
2:0
4:18:12
1:1
8:9:12
2:0
9:16:12
2:0
6:5:12
1:-1
8:7:12
2:0
5:19:12
1:1
6:7:12
1:0
6:8:12
1:0
7:7:12
1:0
6:5:12
1:0
6:6:12
1:0
6:9:12
1:0
2:5:12
0:-1
8:5:12
2:0
10:17:12
2:1
6:11:12
1:0
7:6:12
1:0
8:7:12
2:0
6:15:12
1:0
6:7:12
1:0
8:7:12
2:0
0:15:12
-1:0
5:15:11
1:0
8:6:12
2:0
3:17:12
0:0
6:6:12
1:0
8:7:12
2:0
6:11:12
1:0
8:6:12
2:0
9:16:12
2:0
5:18:12
1:0
6:6:12
1:0
7:6:12
1:0
6:5:12
1:0
7:9:12
1:0
8:3:12
2:0
3:16:12
0:0
9:8:12
2:0
5:17:12
1:0
7:4:12
1:0
6:7:12
1:0
6:9:12
1:0
6:4:12
1:0
8:5:12
2:0
6:16:12
1:0
6:7:12
1:0
7:4:12
1:0
7:7:12
1:0
6:9:12
1:0
2:4:12
0:-1
7:6:12
1:0
8:7:12
2:0
0:12:12
-1:0
5:13:11
1:0
8:5:12
2:0
5:18:12
1:1
6:6:12
1:0
7:6:12
1:0
8:8:12
2:0
6:7:12
1:-1
5:15:12
1:0
10:8:12
2:0
10:18:12
2:1
9:16:12
2:0
7:5:12
1:-1
7:7:12
1:0
8:5:12
2:0
6:16:12
1:0
6:9:12
1:0
8:5:12
2:0
0:14:12
-1:0
9:15:11
2:0
5:17:12
1:0
2:5:12
0:-1
7:8:12
1:0
6:9:12
1:0
7:4:12
1:0
5:5:12
1:0
6:16:12
1:0
6:7:12
1:0
8:5:12
2:0
10:17:12
2:1
6:15:12
1:0
6:5:12
1:0
7:6:12
1:0
6:9:12
1:0
8:5:12
2:-1
10:17:12
2:1
5:18:12
1:0
6:6:12
1:0
7:5:12
1:0
6:8:12
1:0
6:9:12
1:0
7:4:12
1:0
8:5:12
2:0
6:11:12
1:0
8:6:12
2:0
9:16:12
2:0
9:17:12
2:0
5:16:12
1:0
8:7:12
2:0
6:6:12
1:-1
9:8:12
2:0
6:16:12
1:0
6:6:12
1:0
8:8:12
2:0
5:17:12
1:0
6:4:12
1:0
9:6:12
2:0
6:15:12
1:0
8:5:12
2:-1
10:17:12
2:1
8:15:12
2:0
6:5:12
1:-1
7:7:12
1:0
6:9:12
1:0
8:4:12
2:0
5:15:12
1:0
9:9:12
2:0
2:9:12
0:0
9:16:12
2:0
6:16:12
1:0
9:7:12
2:-1
5:17:12
1:0
6:8:12
1:0
6:6:12
1:0
6:7:12
1:0
7:5:12
1:0
7:6:12
1:0
6:9:12
1:0
7:5:12
1:0
8:5:12
2:0
2:7:12
0:0
6:16:12
1:0
8:5:12
2:0
9:16:12
2:0
6:16:12
1:0
6:7:12
1:0
6:5:12
1:0
8:6:12
2:0
5:17:12
1:0
4:2:12
1:-1
7:11:12
1:0
6:12:12
1:0
2:6:12
0:0
10:17:12
2:0
10:17:12
2:1
9:16:12
2:0
6:16:12
1:0
6:7:12
1:0
6:5:12
1:0
6:8:12
1:0
6:9:12
1:0
8:5:12
2:0
10:17:12
2:1
5:18:12
1:0
6:6:12
1:0
7:5:12
1:0
6:8:12
1:0
4:7:12
1:-1
8:4:12
2:0
3:18:12
0:0
0:6:12
-1:0
5:10:11
1:-1
5:5:11
1:0
7:6:12
1:0
8:5:12
2:0
8:19:12
2:0
10:17:12
2:1
0:16:12
-1:0
10:15:11
2:0
9:16:12
2:0
6:16:12
1:0
6:6:12
1:0
8:7:12
2:0
6:10:12
1:0
6:8:12
1:0
8:8:12
2:0
5:17:12
1:0
6:5:12
1:0
6:8:12
1:0
7:7:12
1:0
7:4:12
1:0
0:5:12
-1:0
8:10:11
2:0
4:18:12
1:1
8:7:12
2:0
9:18:12
2:1
4:4:12
1:-1
6:16:12
1:0
6:13:12
1:0
12:13:12
2:0
6:16:12
1:0
7:6:12
1:0
6:6:12
1:0
5:15:12
1:0
6:5:12
1:0
6:8:12
1:0
7:5:12
1:0
7:5:12
1:0
6:7:12
1:0
6:9:12
1:0
7:4:12
1:0
8:5:12
2:0
6:16:12
1:0
6:7:12
1:0
0:5:12
-1:0
9:15:11
2:0
9:16:12
2:0
9:16:12
2:0
10:17:12
2:0
10:17:12
2:1
4:4:12
1:-1
6:16:12
1:0
6:7:12
1:0
7:4:12
1:0
8:8:12
2:0
10:16:12
2:0
6:8:12
1:-1
9:4:12
2:0
10:18:12
2:1
9:16:12
2:0
5:18:12
1:1
6:6:12
1:0
6:7:12
1:0
9:16:12
2:0
10:17:12
2:0
10:17:12
2:1
6:17:12
1:0
3:3:12
0:0
10:17:12
2:1
0:17:12
-1:0
8:8:11
2:-1
9:14:11
2:0
0:14:12
-1:0
5:16:11
1:0
7:6:12
1:0
8:5:12
2:0
8:20:12
2:1
3:12:12
0:0
6:4:12
1:0
6:8:12
1:0
8:6:12
2:-1
5:17:12
1:0
7:5:12
1:0
6:8:12
1:0
7:7:12
1:0
7:4:12
1:0
7:6:12
1:0
5:9:12
1:0
5:7:12
1:0
8:6:12
2:0
6:16:12
1:0
5:6:12
1:0
3:7:12
0:-1
6:8:12
1:0
9:7:12
2:0
5:18:12
1:1
1:6:12
-1:0
6:10:11
1:0
6:16:12
1:0
6:7:12
1:0
7:7:12
1:0
7:4:12
1:0
7:7:12
1:0
6:7:12
1:0
4:16:12
1:0
6:8:12
1:0
12:14:12
2:1
9:17:12
2:0
4:10:12
1:0
8:7:12
2:0
5:17:12
1:0
6:7:12
1:0
8:7:12
2:0
5:17:12
1:0
2:5:12
0:0
0:16:12
-1:0
6:8:11
1:0
8:4:12
2:0
4:17:12
1:0
6:8:12
1:0
6:6:12
1:0
7:6:12
1:0
6:16:12
1:0
6:10:12
1:0
2:14:12
0:1
8:8:12
2:0
2:13:12
0:0
0:16:12
-1:0
5:6:11
1:0
6:8:12
1:0
8:7:12
2:0
5:17:12
1:0
0:6:12
-1:0
9:15:11
2:0
9:16:12
2:0
10:17:12
2:0
10:17:12
2:1
0:16:12
-1:0
10:15:11
2:0
9:16:12
2:0
6:16:12
1:0
6:6:12
1:0
8:7:12
2:0
6:10:12
1:0
6:8:12
1:0
8:8:12
2:0
5:17:12
1:0
6:5:12
1:0
6:8:12
1:0
7:7:12
1:0
7:4:12
1:0
0:5:12
-1:0
7:11:11
1:0
10:16:12
2:1
7:20:12
1:0
0:9:12
-1:0
8:18:11
2:0
3:13:12
0:0
6:9:12
1:0
8:5:12
2:0
10:17:12
2:1
2:9:12
0:0
0:16:12
-1:0
6:6:11
1:0
7:8:12
1:0
7:7:12
1:0
7:4:12
1:0
7:7:12
1:0
5:7:12
1:0
8:7:12
2:0
7:5:12
1:0
7:4:12
1:0
8:9:12
2:0
5:16:12
1:0
6:5:12
1:0
9:5:12
2:0
8:16:12
2:0
6:16:12
1:0
6:6:12
1:0
8:7:12
2:0
6:7:12
1:-1
5:6:12
1:0
6:8:12
1:0
7:5:12
1:0
7:5:12
1:0
0:18:12
-1:0
6:28:11
1:-1
3:11:11
0:-1
8:18:11
2:1
10:14:12
2:0
9:15:12
2:0
9:16:12
2:0
2:10:12
0:0
6:14:12
1:0
8:6:12
2:0
6:15:12
1:0
8:4:12
2:0
4:17:12
1:0
5:6:12
1:0
7:6:12
1:0
9:16:12
2:0
6:16:12
1:0
0:3:12
-1:-1
6:6:11
1:0
7:6:12
1:0
7:9:12
1:0
11:13:12
2:0
10:17:12
2:1
8:15:12
2:0
6:16:12
1:0
5:7:12
1:0
6:8:12
1:0
8:5:12
2:0
10:17:12
2:1
9:16:12
2:0
0:13:12
-1:0
9:15:11
2:0
9:16:12
2:0
9:16:12
2:0
10:18:12
2:1
6:15:12
1:0
5:3:12
1:0
10:18:12
2:1
7:16:12
1:0
9:5:12
2:0
5:15:12
1:0
6:6:12
1:0
6:6:12
1:0
8:5:12
2:0
9:16:12
2:0
5:16:12
1:0
6:6:12
1:0
7:8:12
1:0
5:6:12
1:0
6:6:12
1:0
7:7:12
1:0
10:17:12
2:1
4:17:12
1:0
0:6:12
-1:0
10:12:11
2:0
5:17:12
1:0
8:6:12
2:0
10:15:12
2:0
6:16:12
1:0
6:4:12
1:0
7:6:12
1:0
6:9:12
1:0
9:4:12
2:0
9:16:12
2:0
5:16:12
1:0
6:4:12
1:0
7:6:12
1:0
7:11:12
1:0
3:13:12
0:0
6:6:12
1:0
8:7:12
2:0
6:16:12
1:0
6:5:12
1:0
8:6:12
2:0
9:16:12
2:0
6:16:12
1:0
8:6:12
2:-1
0:15:12
-1:0
6:15:11
1:0
8:5:12
2:0
10:17:12
2:1
9:16:12
2:0
10:18:12
2:1
6:5:12
1:-1
7:7:12
1:0
7:4:12
1:0
7:6:12
1:0
8:8:12
2:0
5:17:12
1:0
5:6:12
1:0
8:8:12
2:0
6:16:12
1:0
8:6:12
2:0
5:17:12
1:0
6:7:12
1:0
6:4:12
1:0
7:6:12
1:0
6:8:12
1:0
8:4:12
2:0
10:18:12
2:1
9:15:12
2:0
5:8:12
1:0
6:6:12
1:0
8:8:12
2:0
6:16:12
1:0
8:4:12
2:0
9:16:12
2:0
6:10:12
1:0
8:5:12
2:0
4:19:12
1:1
6:7:12
1:0
8:7:12
2:0
9:16:12
2:0
5:11:12
1:0
8:5:12
2:0
9:19:12
2:1
5:15:12
1:0
6:7:12
1:0
7:4:12
1:0
7:6:12
1:0
8:7:12
2:0
5:17:12
1:0
9:6:12
2:0
10:16:12
2:0
10:19:12
2:1
3:4:12
0:-1
10:17:12
2:1
9:16:12
2:0
10:18:12
2:1
8:19:12
2:0
2:6:12
0:0
9:16:12
2:0
5:17:12
1:0
6:5:12
1:0
7:6:12
1:0
8:6:12
2:-1
0:12:12
-1:0
6:17:11
1:1
9:3:12
2:-1
6:17:12
1:0
6:7:12
1:0
3:16:12
0:1
6:6:12
1:0
6:6:12
1:0
6:7:12
1:0
6:8:12
1:0
8:6:12
2:0
9:16:12
2:0
6:13:12
1:0
8:6:12
2:0
9:16:12
2:0
10:17:12
2:1
8:15:12
2:0
6:16:12
1:0
6:7:12
1:0
6:8:12
1:0
8:5:12
2:0
10:17:12
2:1
9:16:12
2:0
0:13:12
-1:0
9:15:11
2:0
9:16:12
2:0
9:16:12
2:0
10:18:12
2:1
6:15:12
1:0
5:3:12
1:0
10:18:12
2:1
7:16:12
1:0
6:6:12
1:0
8:6:12
2:-1
6:13:12
1:0
6:6:12
1:0
8:5:12
2:0
9:16:12
2:0
5:16:12
1:0
6:6:12
1:0
7:8:12
1:0
5:6:12
1:0
6:6:12
1:0
6:8:12
1:0
11:16:12
2:1
4:18:12
1:0
0:7:12
-1:0
1:14:11
-1:-1
0:6:10
-1:0
5:14:9
1:1
6:8:10
1:0
8:4:11
2:0
6:6:12
1:0
8:8:12
2:0
0:20:12
-1:0
4:12:11
1:0
8:5:12
2:0
2:16:12
0:0
8:6:12
2:0
10:17:12
2:0
4:9:12
1:0
6:6:12
1:0
7:5:12
1:0
6:8:12
1:0
8:4:12
2:0
9:18:12
2:1
0:13:12
-1:0
9:15:11
2:0
5:18:12
1:1
8:5:12
2:-1
9:20:12
2:1
9:16:12
2:0
4:8:12
1:-1
4:13:12
1:0
7:6:12
1:0
5:7:12
1:0
10:8:12
2:0
9:17:12
2:0
2:7:12
0:0
7:19:12
1:0
3:13:12
0:0
4:6:12
1:-1
8:8:12
2:0
5:17:12
1:0
6:4:12
1:0
7:7:12
1:0
7:10:12
1:0
11:14:12
2:0
10:19:12
2:1
0:13:12
-1:0
5:16:11
1:1
6:8:12
1:0
9:6:12
2:0
11:19:12
2:1
9:16:12
2:0
2:6:12
0:-1
9:16:12
2:0
6:23:12
1:1
10:9:12
2:0
10:18:12
2:1
2:16:12
0:0
2:13:12
0:0
8:6:12
2:0
9:16:12
2:0
6:16:12
1:0
8:6:12
2:0
6:7:12
1:-1
8:6:12
2:0
9:17:12
2:0
10:17:12
2:1
7:16:12
1:0
7:6:12
1:0
4:3:12
1:-1
6:15:12
1:0
7:5:12
1:0
6:9:12
1:-1
3:14:12
0:1
5:7:12
1:0
6:6:12
1:0
8:8:12
2:0
6:15:12
1:0
8:4:12
2:0
9:16:12
2:0
6:16:12
1:0
7:5:12
1:0
6:17:12
1:0
9:5:12
2:0
5:18:12
1:0
9:8:12
2:0
0:13:12
-1:0
9:15:11
2:0
7:13:12
1:0
6:7:12
1:0
7:6:12
1:0
10:6:12
2:0
6:9:12
1:0
6:9:12
1:0
8:4:12
2:0
9:16:12
2:0
3:16:12
0:0
4:12:12
1:0
2:3:12
0:0
9:15:12
2:0
8:20:12
2:0
12:14:12
2:1
7:16:12
1:0
2:12:12
0:0
5:17:12
1:1
8:5:12
2:0
9:17:12
2:0
5:17:12
1:0
6:8:12
1:0
6:6:12
1:0
8:7:12
2:0
9:16:12
2:0
6:13:12
1:0
7:5:12
1:0
6:9:12
1:0
5:4:12
1:0
4:19:12
1:1
8:8:12
2:0
5:17:12
1:0
8:6:12
2:0
2:15:12
0:0
3:14:12
0:0
8:6:12
2:0
5:17:12
1:0
6:6:12
1:0
7:5:12
1:0
0:10:12
-1:0
11:11:11
2:0
10:18:12
2:1
6:14:12
1:0
8:6:12
2:0
10:15:12
2:0
5:7:12
1:-1
9:8:12
2:0
5:17:12
1:0
5:6:12
1:0
5:9:12
1:0
12:16:12
2:1
7:5:12
1:-1
9:16:12
2:0
2:16:12
0:0
8:6:12
2:0
9:18:12
2:0
3:8:12
0:0
6:6:12
1:0
7:5:12
1:0
6:8:12
1:0
8:4:12
2:0
9:18:12
2:1
0:14:12
-1:0
10:14:11
2:0
5:18:12
1:1
8:5:12
2:-1
9:18:12
2:1
8:14:12
2:0
4:5:12
1:-1
6:16:12
1:0
7:6:12
1:0
7:7:12
1:0
6:9:12
1:0
8:4:12
2:0
6:12:12
1:0
6:7:12
1:0
7:6:12
1:0
8:4:12
2:0
9:17:12
2:0
6:15:12
1:0
0:5:12
-1:0
9:15:11
2:0
9:16:12
2:0
9:16:12
2:0
10:17:12
2:1
0:16:12
-1:0
5:16:11
1:1
6:8:12
1:0
0:7:12
-1:0
8:7:11
2:0
4:17:12
1:0
2:7:12
0:0
9:16:12
2:0
10:17:12
2:1
8:15:12
2:0
10:18:12
2:1
6:12:12
1:0
4:45:12
1:0
12:19:12
2:1
10:19:12
2:1
10:18:12
2:0
6:16:12
1:0
2:5:12
0:-1
9:14:12
2:0
5:17:12
1:0
8:6:12
2:0
9:16:12
2:0
0:16:12
-1:0
10:16:11
2:1
5:19:12
1:1
6:5:12
1:0
9:9:12
2:0
10:17:12
2:1
3:6:12
0:-1
10:18:12
2:1
10:17:12
2:0
6:16:12
1:0
6:9:12
1:0
6:7:12
1:0
4:3:12
1:0
6:16:12
1:0
6:9:12
1:0
9:5:12
2:0
6:17:12
1:0
8:7:12
2:0
3:3:12
0:-1
6:16:12
1:0
6:9:12
1:0
9:7:12
2:0
10:17:12
2:1
6:17:12
1:0
5:5:12
1:0
10:18:12
2:1
6:16:12
1:0
6:9:12
1:0
7:4:12
1:0
8:5:12
2:0
3:4:12
0:-1
10:17:12
2:1
8:14:12
2:0
6:16:12
1:0
6:7:12
1:0
8:5:12
2:0
6:4:12
1:-1
6:7:12
1:0
6:6:12
1:0
8:6:12
2:0
10:18:12
2:1
10:17:12
2:0
5:7:12
1:-1
4:17:12
1:1
7:6:12
1:0
8:5:12
2:0
10:16:12
2:0
0:14:12
-1:0
9:15:11
2:0
10:17:12
2:1
6:16:12
1:0
6:5:12
1:0
10:7:12
2:0
2:10:12
0:0
5:17:12
1:0
6:6:12
1:0
8:8:12
2:0
5:17:12
1:0
6:5:12
1:0
7:8:12
1:0
6:7:12
1:0
10:14:12
2:0
10:17:12
2:1
6:15:12
1:0
9:5:12
2:0
2:7:12
0:-1
7:7:12
1:0
8:5:12
2:0
10:17:12
2:1
8:15:12
2:0
10:17:12
2:1
6:5:12
1:-1
7:8:12
1:0
8:7:12
2:0
5:17:12
1:0
6:8:12
1:0
6:8:12
1:0
0:3:12
-1:-1
9:16:11
2:0
6:16:12
1:0
6:7:12
1:0
8:5:12
2:0
10:17:12
2:1
2:8:12
0:0
10:17:12
2:1
8:19:12
2:0
11:13:12
2:0
9:16:12
2:0
0:12:12
-1:0
5:7:11
1:0
8:5:12
2:0
9:16:12
2:0
6:15:12
1:0
7:4:12
1:0
7:6:12
1:0
3:4:12
0:-1
10:16:12
2:1
9:16:12
2:0
6:16:12
1:0
6:8:12
1:0
7:5:12
1:0
3:4:12
0:-1
6:7:12
1:0
6:7:12
1:0
7:6:12
1:0
7:5:12
1:0
6:9:12
1:0
7:5:12
1:0
7:5:12
1:0
6:7:12
1:0
6:8:12
1:0
9:5:12
2:0
6:17:12
1:0
6:7:12
1:0
5:5:12
1:-1
9:16:12
2:0
10:18:12
2:1
5:17:12
1:0
6:7:12
1:0
0:7:12
-1:0
9:15:11
2:0
6:16:12
1:0
9:8:12
2:0
5:17:12
1:0
6:5:12
1:0
0:7:12
-1:0
8:7:11
2:0
6:16:12
1:0
6:5:12
1:0
8:9:12
2:0
5:16:12
1:0
9:6:12
2:0
6:10:12
1:-1
4:14:12
1:0
8:6:12
2:0
10:16:12
2:1
6:15:12
1:0
0:3:12
-1:0
6:16:11
1:0
9:6:12
2:0
10:17:12
2:0
10:17:12
2:1
8:14:12
2:0
6:6:12
1:-1
5:7:12
1:0
8:9:12
2:0
5:16:12
1:0
9:6:12
2:0
5:18:12
1:0
3:4:12
0:-1
6:16:12
1:0
6:9:12
1:0
9:7:12
2:0
10:17:12
2:1
6:17:12
1:0
5:5:12
1:0
10:18:12
2:1
6:16:12
1:0
6:9:12
1:0
7:4:12
1:0
8:5:12
2:0
3:4:12
0:-1
10:17:12
2:1
9:16:12
2:0
6:16:12
1:0
6:7:12
1:0
8:5:12
2:0
6:4:12
1:-1
7:10:12
1:0
8:18:12
2:0
12:14:12
2:1
6:16:12
1:0
0:5:12
-1:0
9:17:11
2:1
3:20:12
0:0
9:21:12
2:0
6:16:12
1:0
8:5:12
2:0
10:17:12
2:1
6:12:12
1:0
0:4:12
-1:0
8:7:11
2:-1
8:14:11
2:0
9:12:12
2:0
6:15:12
1:0
6:6:12
1:0
6:7:12
1:0
8:5:12
2:0
10:17:12
2:1
6:15:12
1:0
6:6:12
1:0
0:6:12
-1:0
5:14:11
1:0
6:5:12
1:0
6:7:12
1:0
8:7:12
2:0
10:17:12
2:1
6:13:12
1:0
8:7:12
2:0
6:16:12
1:0
6:5:12
1:0
7:8:12
1:0
6:9:12
1:0
10:4:12
2:0
7:6:12
1:-1
5:7:12
1:0
7:8:12
1:0
7:7:12
1:0
10:17:12
2:0
5:12:12
1:0
7:5:12
1:0
6:16:12
1:0
6:7:12
1:0
7:4:12
1:0
5:7:12
1:0
6:7:12
1:0
7:4:12
1:0
7:5:12
1:0
7:4:12
1:0
8:9:12
2:0
10:15:12
2:0
4:19:12
1:1
6:5:12
1:0
8:5:12
2:0
5:18:12
1:1
6:6:12
1:0
8:7:12
2:0
5:17:12
1:0
6:6:12
1:0
6:8:12
1:0
7:5:12
1:0
7:5:12
1:0
6:8:12
1:0
3:9:12
0:-1
7:4:12
1:0
5:5:12
1:0
7:7:12
1:0
6:10:12
1:0
11:15:12
2:1
10:16:12
2:0
0:13:12
-1:0
5:15:11
1:0
7:10:12
1:0
4:9:12
1:0
6:6:12
1:0
3:5:12
0:-1
6:8:12
1:0
6:3:12
1:0
8:5:12
2:0
8:20:12
2:0
12:14:12
2:1
5:17:12
1:0
7:7:12
1:0
6:7:12
1:0
10:15:12
2:0
5:17:12
1:0
8:7:12
2:0
10:17:12
2:1
5:11:12
1:0
8:7:12
2:0
10:17:12
2:0
10:17:12
2:1
8:15:12
2:0
5:17:12
1:0
5:4:12
1:0
5:16:12
1:0
8:6:12
2:0
5:17:12
1:1
3:7:12
0:-1
7:6:12
1:0
6:6:12
1:0
9:7:12
2:0
6:15:12
1:0
6:6:12
1:0
9:7:12
2:0
5:18:12
1:1
6:6:12
1:0
6:4:12
1:0
7:8:12
1:0
8:7:12
2:0
10:16:12
2:1
5:18:12
1:0
4:4:12
1:0
7:4:12
1:0
5:15:12
1:0
8:9:12
2:0
5:16:12
1:0
6:6:12
1:0
0:6:12
-1:0
9:13:11
2:0
5:18:12
1:1
6:5:12
1:0
9:8:12
2:0
5:15:12
1:0
6:6:12
1:0
8:8:12
2:0
5:17:12
1:0
7:8:12
1:0
4:15:12
1:0
6:7:12
1:0
7:4:12
1:0
6:5:12
1:0
8:9:12
2:0
5:16:12
1:0
6:6:12
1:0
2:9:12
0:-1
8:7:12
2:0
5:7:12
1:-1
7:8:12
1:0
8:8:12
2:0
5:17:12
1:0
6:5:12
1:0
6:8:12
1:0
0:6:12
-1:0
5:15:11
1:0
6:6:12
1:0
9:7:12
2:0
10:18:12
2:1
7:16:12
1:0
3:5:12
0:0
5:19:12
1:1
5:5:12
1:0
6:9:12
1:0
6:6:12
1:0
8:5:12
2:0
6:12:12
1:0
8:7:12
2:0
9:18:12
2:0
10:16:12
2:1
8:15:12
2:0
5:17:12
1:0
4:4:12
1:0
8:7:12
2:0
10:19:12
2:1
6:16:12
1:0
6:10:12
1:0
8:4:12
2:0
6:6:12
1:-1
7:7:12
1:0
6:15:12
1:0
6:8:12
1:0
8:7:12
2:-1
6:16:12
1:0
6:6:12
1:0
6:4:12
1:0
7:8:12
1:0
7:7:12
1:0
7:4:12
1:0
7:7:12
1:0
8:8:12
2:0
7:5:12
1:-1
9:6:12
2:0
8:15:12
2:0
8:15:12
2:0
10:15:12
2:0
5:10:12
1:0
8:6:12
2:0
5:17:12
1:0
6:7:12
1:0
8:7:12
2:0
5:17:12
1:0
5:5:12
1:0
8:7:12
2:0
0:41:12
-1:0
6:14:11
1:-1
8:8:11
2:0
6:16:12
1:0
7:7:12
1:0
7:3:12
1:-1
9:8:12
2:0
10:19:12
2:1
6:16:12
1:0
6:7:12
1:0
7:6:12
1:0
5:4:12
1:0
6:11:12
1:0
5:11:12
1:0
6:6:12
1:0
7:10:12
1:0
4:14:12
1:0
3:5:12
0:0
10:17:12
2:1
10:18:12
2:1
5:18:12
1:0
7:5:12
1:0
8:8:12
2:0
5:5:12
1:-1
10:18:12
2:1
5:17:12
1:0
8:5:12
2:0
10:17:12
2:1
2:8:12
0:0
9:15:12
2:0
6:16:12
1:0
8:6:12
2:0
6:16:12
1:0
8:5:12
2:0
6:7:12
1:-1
8:5:12
2:0
5:17:12
1:0
9:8:12
2:0
6:14:12
1:0
6:5:12
1:0
6:6:12
1:0
8:8:12
2:0
9:16:12
2:0
10:17:12
2:1
9:16:12
2:0
9:15:12
2:0
5:5:12
1:-1
9:19:12
2:1
5:15:12
1:0
5:9:12
1:0
12:15:12
2:1
2:8:12
0:0
10:16:12
2:0
10:18:12
2:1
9:16:12
2:0
5:18:12
1:1
0:5:12
-1:0
5:15:11
1:0
9:5:12
2:0
10:19:12
2:1
6:15:12
1:0
8:6:12
2:0
5:9:12
1:0
6:9:12
1:0
8:4:12
2:-1
4:17:12
1:0
9:8:12
2:0
6:16:12
1:0
6:6:12
1:0
8:7:12
2:0
6:16:12
1:0
8:5:12
2:0
10:17:12
2:1
6:16:12
1:0
2:3:12
0:0
10:16:12
2:0
6:15:12
1:0
6:6:12
1:0
8:8:12
2:0
6:16:12
1:0
3:4:12
0:0
9:18:12
2:1
9:16:12
2:0
8:15:12
2:0
10:18:12
2:1
2:9:12
0:0
9:16:12
2:0
9:16:12
2:0
5:18:12
1:0
6:6:12
1:0
8:5:12
2:0
7:5:12
1:-1
7:7:12
1:0
8:6:12
2:0
5:17:12
1:0
6:7:12
1:0
8:5:12
2:0
6:9:12
1:0
6:6:12
1:0
8:4:12
2:-1
10:23:12
2:1
9:15:12
2:0
9:18:12
2:1
4:7:12
1:-1
4:17:12
1:0
6:7:12
1:0
7:7:12
1:0
10:16:12
2:1
0:14:12
-1:0
4:14:11
1:0
8:5:12
2:-1
6:16:12
1:0
8:6:12
2:0
9:16:12
2:0
5:11:12
1:0
7:5:12
1:0
10:18:12
2:1
6:16:12
1:0
8:6:12
2:0
9:16:12
2:0
5:8:12
1:-1
6:5:12
1:0
8:6:12
2:-1
5:17:12
1:0
6:6:12
1:0
6:5:12
1:0
8:8:12
2:0
6:7:12
1:-1
6:7:12
1:0
7:6:12
1:0
7:8:12
1:0
8:6:12
2:0
10:17:12
2:0
5:5:12
1:-1
9:8:12
2:0
10:19:12
2:1
6:14:12
1:0
9:7:12
2:0
0:14:12
-1:0
9:14:11
2:0
8:14:12
2:0
6:16:12
1:0
7:8:12
1:0
5:14:12
1:0
3:4:12
0:0
10:17:12
2:1
10:18:12
2:1
9:16:12
2:0
10:18:12
2:1
2:9:12
0:0
9:16:12
2:0
10:17:12
2:1
9:16:12
2:0
10:18:12
2:1
6:12:12
1:0
6:7:12
1:0
3:5:12
0:-1
8:8:12
2:0
6:16:12
1:0
8:4:12
2:0
0:14:12
-1:0
9:14:11
2:0
5:17:12
1:0
9:8:12
2:0
5:17:12
1:0
6:5:12
1:0
7:5:12
1:0
8:8:12
2:0
9:15:12
2:0
6:16:12
1:0
8:6:12
2:0
6:15:12
1:0
6:4:12
1:0
6:7:12
1:0
8:8:12
2:0
6:16:12
1:0
8:5:12
2:0
10:17:12
2:1
6:10:12
1:0
7:7:12
1:0
10:16:12
2:1
3:21:12
0:0
5:18:12
1:0
5:11:12
1:0
6:5:12
1:0
0:15:12
-1:0
6:15:11
1:0
7:6:12
1:0
5:16:12
1:0
9:7:12
2:0
7:14:12
1:0
2:4:12
0:-1
7:6:12
1:0
7:7:12
1:0
8:6:12
2:0
5:17:12
1:0
6:7:12
1:0
0:5:12
-1:0
5:17:11
1:1
8:7:12
2:0
10:16:12
2:0
9:15:12
2:0
0:16:12
-1:0
5:6:11
1:0
8:8:12
2:0
5:17:12
1:0
5:9:12
1:0
3:14:12
0:0
8:8:12
2:0
6:4:12
1:0
7:6:12
1:0
11:14:12
2:0
6:16:12
1:0
8:5:12
2:0
10:17:12
2:1
7:6:12
1:-1
10:17:12
2:1
5:18:12
1:0
6:7:12
1:0
9:5:12
2:0
6:13:12
1:0
9:6:12
2:0
10:18:12
2:1
5:17:12
1:0
6:8:12
1:0
8:5:12
2:0
2:12:12
0:0
7:7:12
1:0
6:8:12
1:0
8:5:12
2:0
10:18:12
2:1
6:16:12
1:0
6:5:12
1:0
7:6:12
1:0
8:8:12
2:0
9:16:12
2:0
10:18:12
2:1
0:14:12
-1:0
9:17:11
2:1
5:17:12
1:0
6:8:12
1:0
7:5:12
1:0
8:8:12
2:0
2:14:12
0:0
9:16:12
2:0
10:17:12
2:1
8:15:12
2:0
5:18:12
1:1
0:4:12
-1:0
7:15:11
1:0
6:4:12
1:0
7:6:12
1:0
8:8:12
2:0
5:17:12
1:0
9:6:12
2:0
6:4:12
1:-1
6:7:12
1:0
5:7:12
1:0
7:6:12
1:0
6:8:12
1:0
6:8:12
1:0
9:5:12
2:0
5:8:12
1:-1
9:7:12
2:0
5:17:12
1:0
9:8:12
2:0
9:17:12
2:0
4:12:12
1:0
7:5:12
1:0
9:16:12
2:0
5:17:12
1:0
9:6:12
2:0
5:17:12
1:0
2:4:12
0:-1
10:17:12
2:0
10:17:12
2:1
9:17:12
2:0
5:19:12
1:1
0:6:12
-1:0
11:13:11
2:0
10:18:12
2:1
7:19:12
1:0
3:14:12
0:0
0:5:12
-1:0
5:8:11
1:0
7:6:12
1:0
8:5:12
2:0
10:17:12
2:1
6:15:12
1:0
9:5:12
2:0
4:8:12
1:-1
5:9:12
1:0
8:4:12
2:0
6:16:12
1:0
9:8:12
2:0
9:14:12
2:0
4:5:12
1:-1
8:7:12
2:0
6:15:12
1:0
6:9:12
1:0
10:16:12
2:1
0:13:12
-1:0
10:16:11
2:1
9:18:12
2:1
6:16:12
1:0
8:6:12
2:0
5:17:12
1:0
2:5:12
0:-1
6:5:12
1:0
7:10:12
1:0
4:10:12
1:0
7:5:12
1:0
7:5:12
1:0
4:12:12
1:0
8:6:12
2:0
10:19:12
2:1
9:16:12
2:0
5:17:12
1:0
8:6:12
2:0
3:4:12
0:-1
6:7:12
1:0
5:6:12
1:0
7:6:12
1:0
5:9:12
1:0
9:6:12
2:0
2:6:12
0:0
9:16:12
2:0
6:17:12
1:0
10:5:12
2:0
10:16:12
2:1
8:15:12
2:0
4:5:12
1:-1
5:17:12
1:0
6:8:12
1:0
8:4:12
2:0
10:18:12
2:1
7:15:12
1:0
8:5:12
2:0
10:17:12
2:1
8:16:12
2:0
10:16:12
2:0
10:17:12
2:1
5:7:12
1:-1
7:5:12
1:0
10:17:12
2:1
8:14:12
2:0
4:18:12
1:1
4:5:12
1:0
5:4:12
1:0
10:17:12
2:0
3:11:12
0:0
5:8:12
1:0
8:6:12
2:0
0:5:12
-1:0
9:16:11
2:0
6:16:12
1:0
8:6:12
2:0
9:16:12
2:0
5:15:12
1:0
5:5:12
1:0
4:12:12
1:0
2:13:12
0:0
0:13:12
-1:0
3:27:11
0:-1
5:5:11
1:0
6:10:12
1:0
6:7:12
1:0
6:16:12
1:0
9:7:12
2:0
9:16:12
2:0
10:17:12
2:0
6:11:12
1:0
7:5:12
1:0
10:17:12
2:0
10:17:12
2:1
5:17:12
1:0
7:7:12
1:0
4:4:12
1:0
6:16:12
1:0
7:10:12
1:0
5:16:12
1:0
8:3:12
2:0
6:16:12
1:0
6:5:12
1:0
7:6:12
1:0
6:6:12
1:0
7:8:12
1:0
9:7:12
2:0
5:19:12
1:1
2:4:12
0:0
10:17:12
2:0
9:19:12
2:1
5:16:12
1:0
6:9:12
1:0
8:4:12
2:0
7:5:12
1:-1
6:9:12
1:0
9:7:12
2:0
4:18:12
1:1
6:8:12
1:0
5:9:12
1:0
5:4:12
1:0
6:6:12
1:0
7:7:12
1:0
9:8:12
2:0
5:17:12
1:0
8:8:12
2:0
2:12:12
0:0
5:17:12
1:0
6:7:12
1:0
6:9:12
1:0
8:6:12
2:0
5:17:12
1:1
5:5:12
1:0
8:7:12
2:0
9:15:12
2:0
2:16:12
0:0
8:7:12
2:0
5:17:12
1:0
6:5:12
1:0
6:7:12
1:0
7:7:12
1:0
7:6:12
1:0
5:16:12
1:0
6:6:12
1:0
7:6:12
1:0
7:4:12
1:0
8:7:12
2:0
5:19:12
1:1
4:7:12
1:-1
9:9:12
2:0
5:17:12
1:0
6:5:12
1:0
6:16:12
1:0
6:9:12
1:0
7:7:12
1:0
7:5:12
1:0
6:8:12
1:0
6:6:12
1:0
6:6:12
1:0
7:6:12
1:0
0:8:12
-1:0
6:6:11
1:0
8:5:12
2:0
0:15:12
-1:0
5:15:11
1:0
7:5:12
1:0
6:9:12
1:0
9:7:12
2:0
10:17:12
2:1
2:13:12
0:0
5:17:12
1:0
9:5:12
2:0
3:16:12
0:0
6:9:12
1:0
7:4:12
1:0
2:6:12
0:0
10:17:12
2:0
10:19:12
2:1
6:16:12
1:0
6:9:12
1:0
8:4:12
2:0
7:5:12
1:-1
6:9:12
1:0
9:7:12
2:0
9:16:12
2:0
5:19:12
1:1
8:7:12
2:0
7:5:12
1:-1
8:7:12
2:0
5:17:12
1:0
7:5:12
1:0
8:8:12
2:0
5:18:12
1:0
6:4:12
1:0
7:7:12
1:0
11:15:12
2:1
5:16:12
1:0
6:6:12
1:0
8:8:12
2:0
4:6:12
1:-1
5:17:12
1:0
7:5:12
1:0
7:8:12
1:0
10:17:12
2:1
6:17:12
1:0
5:4:12
1:0
9:16:12
2:0
9:15:12
2:0
6:17:12
1:0
6:7:12
1:0
0:5:12
-1:0
5:15:11
1:0
6:7:12
1:0
7:7:12
1:0
7:7:12
1:0
6:9:12
1:0
7:6:12
1:0
6:6:12
1:0
6:7:12
1:0
7:9:12
1:0
10:16:12
2:1
6:16:12
1:0
0:10:12
-1:0
4:14:11
1:0
6:5:12
1:0
8:9:12
2:0
5:16:12
1:0
8:6:12
2:0
0:16:12
-1:0
5:15:11
1:0
8:6:12
2:0
2:19:12
0:1
7:5:12
1:0
8:5:12
2:0
6:11:12
1:0
8:3:12
2:-1
9:16:12
2:0
10:17:12
2:0
5:17:12
1:0
6:7:12
1:0
5:6:12
1:0
10:17:12
2:1
10:16:12
2:0
9:17:12
2:0
6:16:12
1:0
6:4:12
1:0
6:7:12
1:0
6:9:12
1:0
8:5:12
2:0
10:17:12
2:1
10:17:12
2:0
6:8:12
1:0
6:6:12
1:0
6:8:12
1:0
9:8:12
2:0
5:17:12
1:0
8:8:12
2:0
5:13:12
1:0
8:6:12
2:0
6:16:12
1:0
6:9:12
1:0
8:4:12
2:0
5:15:12
1:0
5:8:12
1:0
8:7:12
2:0
9:16:12
2:0
2:16:12
0:0
8:7:12
2:0
4:19:12
1:0
7:9:12
1:0
9:20:12
2:0
5:7:12
1:-1
9:8:12
2:0
10:17:12
2:0
10:17:12
2:1
8:15:12
2:0
2:11:12
0:0
10:14:12
2:0
6:16:12
1:0
6:7:12
1:0
5:7:12
1:0
6:11:12
1:0
6:2:12
1:-1
6:7:12
1:0
7:11:12
1:0
3:13:12
0:0
7:8:12
1:0
10:15:12
2:0
6:6:12
1:-1
8:5:12
2:0
10:18:12
2:1
6:15:12
1:0
8:6:12
2:0
0:16:12
-1:0
5:15:11
1:0
6:6:12
1:0
7:5:12
1:0
8:9:12
2:0
5:16:12
1:0
6:6:12
1:0
6:5:12
1:0
8:8:12
2:0
6:16:12
1:0
6:6:12
1:0
10:8:12
2:0
5:17:12
1:0
2:3:12
0:0
5:17:12
1:0
6:6:12
1:0
8:5:12
2:0
10:18:12
2:0
9:15:12
2:0
4:6:12
1:-1
0:16:12
-1:0
6:11:11
1:0
4:16:12
1:1
7:7:12
1:0
6:9:12
1:0
6:5:12
1:0
9:6:12
2:0
10:17:12
2:0
10:17:12
2:1
6:17:12
1:0
0:6:12
-1:0
9:15:11
2:0
3:17:12
0:0
6:8:12
1:0
6:7:12
1:0
8:8:12
2:0
6:7:12
1:-1
7:6:12
1:0
7:6:12
1:0
10:18:12
2:0
6:17:12
1:0
7:5:12
1:0
6:7:12
1:-1
9:8:12
2:0
5:20:12
1:1
7:7:12
1:0
10:14:12
2:0
0:15:12
-1:0
5:15:11
1:0
6:6:12
1:0
7:7:12
1:0
8:5:12
2:0
10:17:12
2:1
0:15:12
-1:0
3:13:11
0:0
7:5:11
1:-1
8:13:11
2:0
9:16:12
2:0
10:17:12
2:0
6:6:12
1:-1
8:7:12
2:0
4:18:12
1:0
6:7:12
1:0
6:5:12
1:0
6:6:12
1:0
6:6:12
1:0
8:6:12
2:0
9:16:12
2:0
10:18:12
2:1
5:19:12
1:1
7:5:12
1:0
7:5:12
1:0
9:7:12
2:0
9:19:12
2:1
5:16:12
1:0
6:7:12
1:0
8:6:12
2:0
7:4:12
1:0
8:6:12
2:0
5:18:12
1:0
6:5:12
1:0
9:9:12
2:0
8:11:12
2:0
5:6:12
1:0
7:7:12
1:0
10:17:12
2:1
6:17:12
1:0
10:7:12
2:0
2:11:12
0:0
9:16:12
2:0
6:16:12
1:0
4:8:12
1:0
9:6:12
2:0
6:16:12
1:0
6:5:12
1:0
7:6:12
1:0
7:7:12
1:0
8:8:12
2:0
6:16:12
1:0
10:5:12
2:0
2:10:12
0:0
9:15:12
2:0
10:17:12
2:0
6:13:12
1:0
9:7:12
2:0
9:16:12
2:0
5:7:12
1:-1
9:8:12
2:0
5:17:12
1:0
5:6:12
1:0
6:12:12
1:0
0:13:12
-1:0
5:15:11
1:0
3:6:12
0:-1
7:7:12
1:0
8:5:12
2:0
10:17:12
2:1
0:13:12
-1:0
6:16:11
1:0
6:7:12
1:0
8:7:12
2:0
9:16:12
2:0
10:17:12
2:0
6:6:12
1:-1
8:5:12
2:0
8:20:12
2:1
4:13:12
1:0
6:5:12
1:0
6:6:12
1:0
6:6:12
1:0
7:7:12
1:0
8:5:12
2:0
10:17:12
2:1
9:17:12
2:0
5:17:12
1:1
6:5:12
1:0
9:6:12
2:0
8:21:12
2:1
4:15:12
1:0
6:7:12
1:0
8:6:12
2:0
7:4:12
1:0
8:7:12
2:0
5:18:12
1:0
6:5:12
1:0
9:9:12
2:0
8:11:12
2:0
6:6:12
1:0
0:7:12
-1:0
6:10:11
1:0
8:4:12
2:0
3:16:12
0:0
7:9:12
1:0
5:4:12
1:0
7:10:12
1:0
9:12:12
2:0
5:19:12
1:1
1:19:12
-1:-1
5:32:11
1:-1
5:5:11
1:0
8:7:12
2:0
9:17:12
2:0
5:15:12
1:0
10:4:12
2:0
6:18:12
1:0
7:4:12
1:0
8:7:12
2:0
9:16:12
2:0
6:16:12
1:0
8:4:12
2:0
6:13:12
1:0
6:7:12
1:0
6:6:12
1:0
7:5:12
1:0
8:8:12
2:0
9:15:12
2:0
5:19:12
1:1
4:4:12
1:0
6:16:12
1:0
7:4:12
1:0
7:6:12
1:0
8:7:12
2:0
6:16:12
1:0
6:4:12
1:0
7:6:12
1:0
8:8:12
2:0
5:17:12
1:0
9:5:12
2:0
9:16:12
2:0
5:9:12
1:0
6:6:12
1:0
8:8:12
2:0
6:16:12
1:0
8:4:12
2:0
4:17:12
1:0
6:8:12
1:0
6:5:12
1:0
8:5:12
2:0
9:19:12
2:1
10:12:12
2:0
10:18:12
2:1
6:8:12
1:0
8:7:12
2:0
9:16:12
2:0
5:17:12
1:0
6:8:12
1:0
7:5:12
1:0
7:6:12
1:0
7:6:12
1:0
7:7:12
1:0
8:5:12
2:0
9:16:12
2:0
5:17:12
1:0
6:7:12
1:0
8:8:12
2:0
6:16:12
1:0
8:6:12
2:0
9:16:12
2:0
6:16:12
1:0
3:3:12
0:0
10:18:12
2:1
7:15:12
1:0
8:5:12
2:0
9:16:12
2:0
6:15:12
1:0
6:4:12
1:0
7:6:12
1:0
8:8:12
2:0
6:16:12
1:0
8:5:12
2:0
10:17:12
2:1
7:6:12
1:-1
10:17:12
2:1
7:15:12
1:0
8:6:12
2:0
9:17:12
2:0
7:7:12
1:-1
8:8:12
2:0
10:16:12
2:0
10:17:12
2:1
8:15:12
2:0
0:17:12
-1:0
9:15:11
2:0
9:17:12
2:0
9:16:12
2:0
0:16:12
-1:0
8:7:11
2:0
3:6:12
0:-1
10:16:12
2:1
9:16:12
2:0
10:18:12
2:1
5:17:12
1:0
6:4:12
1:0
7:6:12
1:0
8:8:12
2:0
9:15:12
2:0
10:18:12
2:1
6:17:12
1:0
6:5:12
1:0
6:5:12
1:0
8:8:12
2:0
5:17:12
1:0
6:5:12
1:0
7:6:12
1:0
0:7:12
-1:0
6:16:11
1:0
8:5:12
2:0
5:17:12
1:0
6:8:12
1:0
8:5:12
2:-1
0:14:12
-1:0
5:15:11
1:0
6:6:12
1:0
8:5:12
2:0
10:17:12
2:1
9:16:12
2:0
5:9:12
1:0
9:7:12
2:0
10:18:12
2:1
6:16:12
1:0
8:7:12
2:0
6:16:12
1:0
3:3:12
0:0
6:15:12
1:0
9:6:12
2:0
11:17:12
2:1
10:18:12
2:1
6:16:12
1:0
6:4:12
1:0
7:6:12
1:0
8:8:12
2:0
6:16:12
1:0
0:5:12
-1:0
5:6:11
1:0
6:6:12
1:0
6:5:12
1:0
8:7:12
2:0
5:17:12
1:1
6:7:12
1:0
Heartbeat CPU 0 instructions: 10000002 cycles: 7787543 heartbeat IPC: 1.2841 cumulative IPC: 1.22244 (Simulation time: 0 hr 0 min 31 sec) 
7:5:12
1:0
2:8:12
0:0
6:15:12
1:0
8:4:12
2:0
9:16:12
2:0
9:15:12
2:0
5:19:12
1:1
4:4:12
1:0
6:16:12
1:0
7:4:12
1:0
7:6:12
1:0
7:7:12
1:0
9:7:12
2:0
6:12:12
1:0
7:9:12
1:0
4:14:12
1:0
8:4:12
2:0
10:18:12
2:1
7:15:12
1:0
6:5:12
1:0
7:6:12
1:0
6:8:12
1:0
8:7:12
2:0
5:17:12
1:0
6:7:12
1:0
2:8:12
0:0
5:17:12
1:0
8:6:12
2:0
5:17:12
1:0
6:5:12
1:0
3:6:12
0:-1
0:7:12
-1:0
6:15:11
1:0
8:5:12
2:0
5:17:12
1:0
6:6:12
1:0
6:9:12
1:0
6:8:12
1:0
8:7:12
2:0
10:16:12
2:0
10:18:12
2:1
8:15:12
2:0
0:14:12
-1:0
3:21:11
0:0
4:9:11
1:0
7:6:12
1:0
6:8:12
1:0
6:7:12
1:0
8:5:12
2:0
8:21:12
2:1
2:8:12
0:0
6:7:12
1:0
8:7:12
2:0
2:17:12
0:0
8:6:12
2:0
10:17:12
2:0
4:10:12
1:0
8:5:12
2:0
10:17:12
2:1
9:16:12
2:0
10:18:12
2:1
0:14:12
-1:0
5:14:11
1:0
6:5:12
1:0
7:7:12
1:0
6:14:12
1:0
6:5:12
1:0
7:6:12
1:0
6:5:12
1:0
6:11:12
1:0
12:12:12
2:0
4:18:12
1:1
7:8:12
1:0
0:14:12
-1:0
8:18:11
2:1
11:16:12
2:1
9:16:12
2:0
9:16:12
2:0
6:16:12
1:0
5:4:12
1:0
10:18:12
2:1
6:15:12
1:0
9:6:12
2:0
5:17:12
1:0
0:6:12
-1:0
9:15:11
2:0
8:12:12
2:0
3:16:12
0:0
9:6:12
2:0
5:18:12
1:1
6:4:12
1:0
6:9:12
1:0
12:16:12
2:1
8:17:12
2:0
10:15:12
2:0
6:9:12
1:0
8:8:12
2:0
5:17:12
1:0
9:5:12
2:0
9:17:12
2:0
5:17:12
1:0
6:4:12
1:0
6:6:12
1:0
6:9:12
1:0
9:6:12
2:0
5:18:12
1:1
9:6:12
2:0
5:12:12
1:0
6:6:12
1:0
6:13:12
1:0
0:11:12
-1:0
6:7:11
1:0
8:8:12
2:0
0:12:12
-1:0
5:16:11
1:1
8:5:12
2:0
5:17:12
1:0
8:4:12
2:0
10:18:12
2:1
5:10:12
1:0
6:7:12
1:0
8:6:12
2:0
0:16:12
-1:0
6:8:11
1:0
8:5:12
2:0
0:14:12
-1:0
5:14:11
1:0
6:5:12
1:0
7:10:12
1:0
6:16:12
1:0
6:7:12
1:0
0:5:12
-1:0
9:15:11
2:0
5:17:12
1:0
8:6:12
2:-1
4:17:12
1:0
8:6:12
2:0
7:4:12
1:0
8:8:12
2:0
6:16:12
1:0
8:4:12
2:0
9:18:12
2:0
10:14:12
2:0
4:7:12
1:-1
8:6:12
2:0
5:16:12
1:0
8:5:12
2:-1
10:18:12
2:1
6:12:12
1:0
4:5:12
1:0
7:8:12
1:0
8:7:12
2:0
6:16:12
1:0
7:6:12
1:0
0:17:12
-1:0
2:11:11
0:0
9:5:11
2:0
10:18:12
2:1
6:16:12
1:0
6:8:12
1:0
4:7:12
1:0
6:15:12
1:0
8:5:12
2:0
4:17:12
1:0
9:7:12
2:0
0:16:12
-1:0
4:12:11
1:0
10:5:12
2:0
10:17:12
2:1
9:16:12
2:0
6:16:12
1:0
4:7:12
1:0
12:13:12
2:0
6:16:12
1:0
5:11:12
1:0
11:15:12
2:1
3:8:12
0:0
7:6:12
1:0
10:17:12
2:0
9:16:12
2:0
10:18:12
2:1
0:17:12
-1:0
5:15:11
1:0
8:6:12
2:0
5:17:12
1:0
6:7:12
1:0
8:5:12
2:0
0:14:12
-1:0
5:14:11
1:0
6:5:12
1:0
8:6:12
2:0
9:15:12
2:0
6:12:12
1:0
0:7:12
-1:0
10:14:11
2:0
6:15:12
1:0
8:6:12
2:0
4:17:12
1:0
7:8:12
1:0
3:6:12
0:0
10:19:12
2:1
6:16:12
1:0
8:6:12
2:-1
9:16:12
2:0
6:16:12
1:0
5:4:12
1:0
10:18:12
2:1
6:15:12
1:0
8:6:12
2:0
5:17:12
1:0
0:6:12
-1:0
9:15:11
2:0
9:16:12
2:0
3:17:12
0:0
8:4:12
2:0
9:16:12
2:0
6:7:12
1:-1
7:6:12
1:0
8:5:12
2:0
9:16:12
2:0
6:16:12
1:0
8:5:12
2:0
6:9:12
1:0
2:46:12
0:-1
5:6:12
1:0
0:6:12
-1:0
8:9:11
2:-1
8:14:11
2:0
9:16:12
2:0
2:5:12
0:-1
7:11:12
1:0
9:17:12
2:1
5:15:12
1:0
6:9:12
1:0
7:4:12
1:0
7:4:12
1:0
7:7:12
1:0
6:8:12
1:0
8:5:12
2:0
6:16:12
1:0
6:9:12
1:0
2:4:12
0:0
9:17:12
2:0
6:16:12
1:0
9:6:12
2:0
10:17:12
2:1
10:17:12
2:0
8:6:12
2:-1
8:15:12
2:0
9:15:12
2:0
8:16:12
2:0
5:18:12
1:1
2:4:12
0:-1
7:6:12
1:0
8:5:12
2:0
6:16:12
1:0
6:7:12
1:0
8:5:12
2:0
2:14:12
0:0
8:11:12
2:0
9:15:12
2:0
6:16:12
1:0
8:8:12
2:0
5:16:12
1:0
3:5:12
0:-1
9:7:12
2:0
10:18:12
2:1
6:17:12
1:0
8:7:12
2:0
2:13:12
0:0
6:16:12
1:0
7:11:12
1:0
4:16:12
1:1
7:9:12
1:0
5:14:12
1:0
2:3:12
0:-1
7:6:12
1:0
6:7:12
1:0
9:8:12
2:0
5:18:12
1:1
8:6:12
2:0
4:6:12
1:-1
9:16:12
2:0
10:17:12
2:0
9:16:12
2:0
10:17:12
2:0
2:9:12
0:0
6:17:12
1:0
8:5:12
2:0
9:19:12
2:1
5:13:12
1:0
6:6:12
1:0
6:4:12
1:0
9:8:12
2:0
10:17:12
2:0
10:17:12
2:1
8:14:12
2:0
2:12:12
0:0
6:17:12
1:0
6:6:12
1:0
8:5:12
2:0
6:16:12
1:0
6:9:12
1:0
6:4:12
1:0
7:6:12
1:0
6:9:12
1:0
9:7:12
2:0
10:17:12
2:1
6:17:12
1:0
2:6:12
0:0
5:18:12
1:0
6:5:12
1:0
9:8:12
2:0
5:19:12
1:1
6:5:12
1:0
7:7:12
1:0
7:6:12
1:0
8:5:12
2:0
10:17:12
2:1
6:16:12
1:0
6:5:12
1:0
0:5:12
-1:0
6:14:11
1:0
8:5:12
2:0
10:17:12
2:0
6:16:12
1:0
6:6:12
1:0
4:9:12
1:0
10:15:12
2:0
5:19:12
1:1
6:5:12
1:0
8:9:12
2:0
0:16:12
-1:0
5:15:11
1:0
6:6:12
1:0
7:7:12
1:0
8:5:12
2:0
10:17:12
2:1
0:12:12
-1:0
9:15:11
2:0
7:13:12
1:0
9:7:12
2:0
5:17:12
1:0
6:8:12
1:0
0:5:12
-1:0
5:15:11
1:0
8:5:12
2:0
5:17:12
1:0
6:7:12
1:0
8:5:12
2:0
0:15:12
-1:0
9:15:11
2:0
10:17:12
2:1
5:18:12
1:0
8:6:12
2:0
6:16:12
1:0
3:4:12
0:-1
6:16:12
1:0
6:6:12
1:0
8:8:12
2:0
8:14:12
2:0
0:14:12
-1:0
6:16:11
1:0
8:7:12
2:0
5:17:12
1:0
6:5:12
1:0
9:9:12
2:0
2:14:12
0:0
9:17:12
2:0
6:16:12
1:0
6:8:12
1:0
11:14:12
2:1
10:17:12
2:0
6:6:12
1:-1
7:7:12
1:0
7:7:12
1:0
6:9:12
1:0
7:4:12
1:0
7:6:12
1:0
2:10:12
0:0
5:18:12
1:0
9:6:12
2:0
9:17:12
2:0
5:16:12
1:0
6:6:12
1:0
2:4:12
0:0
8:15:12
2:0
9:15:12
2:0
6:16:12
1:0
9:7:12
2:0
5:17:12
1:0
3:5:12
0:-1
7:7:12
1:0
7:7:12
1:0
7:5:12
1:0
7:6:12
1:0
6:9:12
1:0
0:4:12
-1:0
5:15:11
1:0
6:6:12
1:0
7:7:12
1:0
8:5:12
2:0
10:17:12
2:1
0:12:12
-1:0
9:15:11
2:0
0:17:12
-1:0
5:10:11
1:-1
8:7:11
2:0
6:15:12
1:0
6:7:12
1:0
8:7:12
2:0
3:10:12
0:0
3:15:12
0:1
8:6:12
2:0
4:17:12
1:1
9:6:12
2:0
9:18:12
2:0
4:4:12
1:-1
9:15:12
2:0
6:16:12
1:0
6:6:12
1:0
7:7:12
1:0
0:15:12
-1:0
5:16:11
1:1
9:7:12
2:0
10:17:12
2:1
10:17:12
2:0
9:14:12
2:0
4:2:12
1:-1
5:5:12
1:0
6:7:12
1:0
9:15:12
2:0
4:11:12
1:0
5:7:12
1:0
6:9:12
1:0
6:4:12
1:0
8:5:12
2:0
8:12:12
2:0
10:6:12
2:0
8:16:12
2:0
0:17:12
-1:0
5:15:11
1:0
8:5:12
2:0
9:20:12
2:1
11:15:12
2:1
9:17:12
2:0
4:7:12
1:-1
5:17:12
1:0
6:5:12
1:0
6:8:12
1:0
6:9:12
1:0
3:4:12
0:-1
8:6:12
2:0
6:8:12
1:0
4:15:12
1:0
8:5:12
2:0
10:17:12
2:1
6:15:12
1:0
6:6:12
1:0
6:6:12
1:0
6:8:12
1:0
8:6:12
2:0
9:17:12
2:0
9:15:12
2:0
2:9:12
0:0
4:18:12
1:0
8:7:12
2:0
10:19:12
2:1
4:17:12
1:0
7:7:12
1:0
5:7:12
1:0
12:14:12
2:1
8:15:12
2:0
10:17:12
2:1
9:17:12
2:0
2:7:12
0:0
5:17:12
1:0
6:5:12
1:0
7:10:12
1:0
10:14:12
2:0
10:17:12
2:1
7:7:12
1:-1
5:6:12
1:0
9:5:12
2:0
6:16:12
1:0
9:8:12
2:0
5:19:12
1:1
5:5:12
1:0
8:9:12
2:0
5:17:12
1:0
6:5:12
1:0
6:8:12
1:0
8:7:12
2:0
6:8:12
1:0
6:7:12
1:0
8:8:12
2:0
5:17:12
1:0
6:5:12
1:0
2:8:12
0:-1
8:6:12
2:0
7:5:12
1:-1
7:6:12
1:0
5:15:12
1:0
6:7:12
1:0
8:5:12
2:0
10:17:12
2:1
4:6:12
1:-1
9:16:12
2:0
9:16:12
2:0
6:16:12
1:0
8:6:12
2:-1
9:16:12
2:0
5:7:12
1:-1
7:5:12
1:0
7:5:12
1:0
6:8:12
1:0
7:6:12
1:0
5:17:12
1:0
6:4:12
1:0
6:9:12
1:0
7:5:12
1:0
5:15:12
1:0
8:10:12
2:0
5:15:12
1:0
6:5:12
1:0
7:7:12
1:0
9:8:12
2:0
8:20:12
2:0
12:14:12
2:1
8:17:12
2:0
4:3:12
1:-1
6:6:12
1:0
6:12:12
1:0
3:12:12
0:0
8:5:12
2:0
9:16:12
2:0
3:14:12
0:0
3:15:12
0:1
8:7:12
2:0
5:17:12
1:0
8:5:12
2:0
10:17:12
2:1
5:6:12
1:-1
8:6:12
2:0
8:9:12
2:0
9:15:12
2:0
10:17:12
2:1
6:13:12
1:0
8:7:12
2:0
6:16:12
1:0
6:5:12
1:0
8:9:12
2:0
4:16:12
1:0
7:6:12
1:0
5:8:12
1:0
9:8:12
2:0
6:16:12
1:0
9:7:12
2:0
6:16:12
1:0
6:4:12
1:0
7:9:12
1:0
10:16:12
2:1
9:16:12
2:0
10:17:12
2:0
0:14:12
-1:0
5:15:11
1:0
6:7:12
1:0
6:9:12
1:0
8:4:12
2:0
2:15:12
0:0
8:9:12
2:0
6:5:12
1:-1
8:5:12
2:0
8:13:12
2:0
7:10:12
1:0
5:17:12
1:0
0:9:12
-1:0
11:9:11
2:0
6:14:12
1:0
6:6:12
1:0
4:8:12
1:0
6:7:12
1:-1
5:7:12
1:0
4:5:12
1:0
7:7:12
1:0
11:15:12
2:1
4:11:12
1:0
9:6:12
2:0
7:9:12
1:0
5:6:12
1:0
0:14:12
-1:0
6:40:11
1:-1
10:12:11
2:0
5:16:12
1:0
0:8:12
-1:0
4:15:11
1:1
2:8:12
0:-1
8:4:12
2:0
10:18:12
2:1
9:15:12
2:0
5:8:12
1:0
7:7:12
1:0
8:8:12
2:0
6:16:12
1:0
8:4:12
2:0
9:16:12
2:0
6:11:12
1:0
7:5:12
1:0
0:5:12
-1:-1
8:6:11
2:0
5:15:12
1:0
6:6:12
1:0
8:8:12
2:0
6:7:12
1:-1
8:6:12
2:0
10:17:12
2:1
9:16:12
2:0
5:17:12
1:0
8:6:12
2:0
6:7:12
1:-1
8:7:12
2:0
6:16:12
1:0
9:8:12
2:0
6:15:12
1:0
8:4:12
2:0
6:5:12
1:-1
6:6:12
1:0
6:7:12
1:0
7:6:12
1:0
11:15:12
2:1
8:15:12
2:0
6:6:12
1:-1
8:8:12
2:0
10:14:12
2:0
9:16:12
2:0
10:17:12
2:1
6:12:12
1:0
6:5:12
1:0
7:6:12
1:0
9:8:12
2:0
6:16:12
1:0
8:6:12
2:0
5:17:12
1:0
5:6:12
1:0
8:5:12
2:0
9:17:12
2:0
6:16:12
1:0
6:4:12
1:0
8:7:12
2:0
7:5:12
1:-1
7:8:12
1:0
7:4:12
1:0
7:6:12
1:0
8:8:12
2:0
5:17:12
1:0
0:5:12
-1:0
9:15:11
2:0
9:15:12
2:0
6:16:12
1:0
8:6:12
2:0
6:16:12
1:0
3:4:12
0:0
10:18:12
2:1
9:17:12
2:0
9:16:12
2:0
5:17:12
1:0
0:6:12
-1:0
8:12:11
2:0
3:15:12
0:0
6:8:12
1:0
8:5:12
2:0
5:17:12
1:0
0:6:12
-1:0
5:15:11
1:0
6:5:12
1:0
6:6:12
1:0
6:7:12
1:0
7:6:12
1:0
11:15:12
2:1
4:4:12
1:-1
10:15:12
2:0
6:17:12
1:0
9:6:12
2:0
5:17:12
1:0
8:6:12
2:0
6:7:12
1:-1
9:7:12
2:0
9:17:12
2:0
5:17:12
1:0
6:8:12
1:0
6:6:12
1:0
6:5:12
1:0
9:8:12
2:0
10:17:12
2:0
10:17:12
2:1
8:15:12
2:0
6:8:12
1:0
7:6:12
1:0
10:18:12
2:1
9:18:12
2:1
9:16:12
2:0
6:16:12
1:0
6:3:12
1:0
8:5:12
2:0
5:17:12
1:0
6:8:12
1:0
7:5:12
1:0
8:8:12
2:0
6:9:12
1:0
6:7:12
1:0
8:5:12
2:0
10:17:12
2:1
9:16:12
2:0
11:18:12
2:1
6:5:12
1:-1
7:8:12
1:0
3:4:12
0:-1
7:6:12
1:0
8:8:12
2:0
5:17:12
1:0
0:5:12
-1:0
9:15:11
2:0
8:16:12
2:0
9:16:12
2:0
5:16:12
1:0
7:5:12
1:0
4:6:12
1:-1
10:17:12
2:1
10:15:12
2:0
11:11:12
2:0
12:11:12
2:1
3:8:12
0:0
5:4:12
1:0
10:18:12
2:1
7:16:12
1:0
5:6:12
1:0
7:5:12
1:0
5:15:12
1:0
7:5:12
1:0
0:5:12
-1:-1
6:7:11
1:0
8:7:12
2:0
5:18:12
1:0
0:10:12
-1:0
10:12:11
2:0
5:18:12
1:1
10:6:12
2:0
6:16:12
1:0
8:6:12
2:0
6:9:12
1:0
8:8:12
2:0
3:17:12
0:0
8:6:12
2:0
5:17:12
1:0
6:6:12
1:0
7:5:12
1:0
7:5:12
1:0
6:8:12
1:0
6:7:12
1:0
8:5:12
2:0
10:17:12
2:1
6:17:12
1:0
5:4:12
1:0
10:18:12
2:1
6:16:12
1:0
6:5:12
1:0
8:8:12
2:0
0:13:12
-1:0
9:15:11
2:0
5:18:12
1:1
8:6:12
2:0
9:16:12
2:0
9:15:12
2:0
4:7:12
1:-1
10:16:12
2:0
10:18:12
2:1
3:16:12
0:0
4:11:12
1:0
6:9:12
1:0
7:6:12
1:0
4:11:12
1:0
4:7:12
1:0
8:5:12
2:0
10:17:12
2:1
5:18:12
1:0
6:7:12
1:0
0:5:12
-1:0
9:15:11
2:0
10:18:12
2:1
10:16:12
2:0
10:19:12
2:1
6:15:12
1:0
6:8:12
1:0
3:14:12
0:0
6:7:12
1:0
8:5:12
2:0
10:18:12
2:1
2:8:12
0:0
10:18:12
2:1
5:18:12
1:0
8:7:12
2:0
10:14:12
2:0
9:17:12
2:0
Finished CPU 0 instructions: 10000001 cycles: 8223191 cumulative IPC: 1.21607 (Simulation time: 0 hr 0 min 34 sec) 

CPU 0 Branch Prediction Accuracy: 99.9749% MPKI: 0.0044 Average ROB Occupancy at Mispredict: 351.159

ChampSim completed all CPUs

Region of Interest Statistics

CPU 0 cumulative IPC: 1.21607 instructions: 10000001 cycles: 8223191
L1D TOTAL     ACCESS:    3247767  HIT:    3114848  MISS:     132919
L1D LOAD      ACCESS:    1348736  HIT:    1317703  MISS:      31033
L1D RFO       ACCESS:     701797  HIT:     701665  MISS:        132
L1D PREFETCH  ACCESS:    1197234  HIT:    1095480  MISS:     101754
L1D WRITEBACK ACCESS:          0  HIT:          0  MISS:          0
L1D PREFETCH  REQUESTED:    1556749  ISSUED:    1545691  USEFUL:     114050  USELESS:        720
L1D AVERAGE MISS LATENCY: 963749 cycles
L1I TOTAL     ACCESS:    2226852  HIT:    2226852  MISS:          0
L1I LOAD      ACCESS:    2226852  HIT:    2226852  MISS:          0
L1I RFO       ACCESS:          0  HIT:          0  MISS:          0
L1I PREFETCH  ACCESS:          0  HIT:          0  MISS:          0
L1I WRITEBACK ACCESS:          0  HIT:          0  MISS:          0
L1I PREFETCH  REQUESTED:          0  ISSUED:          0  USEFUL:          0  USELESS:          0
L1I AVERAGE MISS LATENCY: -nan cycles
L2C TOTAL     ACCESS:     369100  HIT:     280744  MISS:      88356
L2C LOAD      ACCESS:       2619  HIT:       1217  MISS:       1402
L2C RFO       ACCESS:        132  HIT:        132  MISS:          0
L2C PREFETCH  ACCESS:     278497  HIT:     191543  MISS:      86954
L2C WRITEBACK ACCESS:      87852  HIT:      87852  MISS:          0
L2C PREFETCH  REQUESTED:     201197  ISSUED:     199431  USEFUL:        119  USELESS:      89491
L2C AVERAGE MISS LATENCY: 189.155 cycles
LLC TOTAL     ACCESS:     176025  HIT:      88013  MISS:      88012
LLC LOAD      ACCESS:       1401  HIT:         15  MISS:       1386
LLC RFO       ACCESS:          0  HIT:          0  MISS:          0
LLC PREFETCH  ACCESS:      86955  HIT:        329  MISS:      86626
LLC WRITEBACK ACCESS:      87669  HIT:      87669  MISS:          0
LLC PREFETCH  REQUESTED:          0  ISSUED:          0  USEFUL:          3  USELESS:      65042
LLC AVERAGE MISS LATENCY: 159.731 cycles
Major fault: 0 Minor fault: 1562
CPU 0 L2C next line prefetcher final stats

DRAM Statistics
 CHANNEL 0
 RQ ROW_BUFFER_HIT:      35441  ROW_BUFFER_MISS:      52571
 DBUS_CONGESTED:      91646
 WQ ROW_BUFFER_HIT:      32879  ROW_BUFFER_MISS:      30998  FULL:          0

 AVG_CONGESTED_CYCLE: 6
