
*** ChampSim Multicore Out-of-Order Simulator ***

Warmup Instructions: 1000000
Simulation Instructions: 10000000
Number of CPUs: 1
LLC sets: 2048
LLC ways: 16
Off-chip DRAM Size: 4096 MB Channels: 1 Width: 64-bit Data Rate: 3200 MT/s

CPU 0 runs /home/light/7th-Sem/cs622/project/ChampSim/dpc3_traces/654.roms_s-842B.champsimtrace.xz
2:6:4
0:-1
1:17:4
-1:-1
0:17:3
-1:-1
0:13:2
-1:-1
4:3:1
1:-1
0:1:1
-1:-1
6:10:1
1:-1
2:2:1
0:-1
4:2:1
1:-1
5:0:1
1:-1
6:1:1
1:-1
0:1:1
-1:-1
0:2:1
-1:-1
7:0:1
1:-1
1:0:1
-1:-1
0:2:1
-1:-1
2:1:1
0:-1
0:1:1
-1:-1
0:1:1
-1:-1
0:1:1
-1:-1
1:2:1
-1:-1
8:10:1
2:-1
14:12:1
2:1
15:11:3
2:1
1:5:5
-1:0
2:1:4
0:0
4:2:4
1:0
6:2:5
1:0
7:1:6
1:-1
9:2:6
2:0
11:2:7
2:0
12:1:8
2:-1
13:1:8
2:-1
14:1:8
2:-1
14:1:8
2:-1
14:1:8
2:-1
14:1:8
2:-1
15:1:8
2:-1
15:1:8
2:-1
15:1:8
2:-1
15:1:8
2:-1
15:1:8
2:-1
15:1:8
2:-1
15:1:8
2:-1
15:1:8
2:-1
15:1:8
2:-1
15:1:8
2:-1
15:1:8
2:-1
15:1:8
2:-1
15:1:8
2:-1
15:1:8
2:-1
15:1:8
2:-1
15:1:8
2:-1
15:1:8
2:-1
15:1:8
2:-1
15:1:8
2:-1
15:1:8
2:-1
15:1:8
2:-1
15:1:8
2:-1
15:1:8
2:-1
15:1:8
2:-1
15:1:8
2:-1
15:1:8
2:-1
15:1:8
2:-1
15:1:8
2:-1
15:1:8
2:-1
15:1:8
2:-1
15:1:8
2:-1
15:1:8
2:-1
15:1:8
2:-1
15:1:8
2:-1
15:1:8
2:-1
15:1:8
2:-1
15:1:8
2:-1
15:1:8
2:-1
15:1:8
2:-1
15:1:8
2:-1
15:1:8
2:-1
0:0:8
-1:-1
2:1:7
0:-1
3:1:7
0:-1
4:1:7
1:-1
5:2:7
1:-1
11:10:7
2:-1
15:11:7
2:1
15:11:9
2:1
1:2:11
-1:-1
3:2:10
0:-1
4:1:10
1:-1
5:1:10
1:-1
7:2:10
1:-1
9:2:10
2:-1
10:1:10
2:-1
11:1:10
2:-1
12:1:10
2:-1
13:1:10
2:-1
14:1:10
2:-1
15:1:10
2:-1
15:1:10
2:-1
15:1:10
2:-1
15:1:10
2:-1
15:1:10
2:-1
15:1:10
2:-1
15:1:10
2:-1
15:1:10
2:-1
15:1:10
2:-1
15:1:10
2:-1
15:1:10
2:-1
15:1:10
2:-1
15:1:10
2:-1
15:1:10
2:-1
15:1:10
2:-1
15:1:10
2:-1
15:1:10
2:-1
15:1:10
2:-1
15:1:10
2:-1
15:1:10
2:-1
15:1:10
2:-1
15:1:10
2:-1
15:1:10
2:-1
15:1:10
2:-1
15:1:10
2:-1
15:1:10
2:-1
15:1:10
2:-1
15:1:10
2:-1
15:1:10
2:-1
15:1:10
2:-1
15:1:10
2:-1
15:1:10
2:-1
15:1:10
2:-1
15:1:10
2:-1
15:1:10
2:-1
15:1:10
2:-1
15:1:10
2:-1
15:1:10
2:-1
15:1:10
2:-1
15:1:10
2:-1
15:1:10
2:-1
15:1:10
2:-1
15:1:10
2:-1
0:0:10
-1:-1
2:2:9
0:-1
3:1:9
0:-1
4:1:9
1:-1
5:1:9
1:-1
3:2:9
0:-1
14:11:9
2:1
15:11:11
2:1
0:10:12
-1:0
0:7:11
-1:-1
3:6:10
0:-1
1:1:10
-1:-1
2:3:9
0:-1
4:2:9
1:-1
6:2:9
1:-1
7:1:9
1:-1
9:2:9
2:-1
10:1:9
2:-1
11:1:9
2:-1
12:1:9
2:-1
13:1:9
2:-1
14:1:9
2:-1
14:1:9
2:-1
15:1:9
2:-1
15:1:9
2:-1
15:1:9
2:-1
15:1:9
2:-1
15:1:9
2:-1
15:1:9
2:-1
15:1:9
2:-1
15:1:9
2:-1
15:1:9
2:-1
15:1:9
2:-1
15:1:9
2:-1
15:1:9
2:-1
15:1:9
2:-1
15:1:9
2:-1
15:1:9
2:-1
15:1:9
2:-1
15:1:9
2:-1
15:1:9
2:-1
15:1:9
2:-1
15:1:9
2:-1
15:1:9
2:-1
15:1:9
2:-1
15:1:9
2:-1
15:1:9
2:-1
15:1:9
2:-1
15:1:9
2:-1
15:1:9
2:-1
15:1:9
2:-1
15:1:9
2:-1
15:1:9
2:-1
15:1:9
2:-1
15:1:9
2:-1
15:1:9
2:-1
15:1:9
2:-1
14:2:9
2:-1
14:1:9
2:-1
14:1:9
2:-1
14:1:9
2:-1
14:1:9
2:-1
14:1:9
2:-1
14:1:9
2:-1
0:0:9
-1:-1
2:1:8
0:-1
3:1:8
0:-1
4:2:8
1:-1
5:1:8
1:-1
6:1:8
1:-1
6:4:8
1:-1
15:11:8
2:1
15:11:10
2:1
0:7:12
-1:0
1:1:11
-1:-1
3:3:10
0:-1
4:1:10
1:-1
5:1:10
1:-1
7:2:10
1:-1
9:2:10
2:-1
10:1:10
2:-1
12:2:10
2:-1
13:2:10
2:-1
14:1:10
2:-1
14:1:10
2:-1
15:1:10
2:-1
15:1:10
2:-1
15:1:10
2:-1
15:1:10
2:-1
15:1:10
2:-1
15:1:10
2:-1
15:1:10
2:-1
15:1:10
2:-1
15:1:10
2:-1
15:1:10
2:-1
15:1:10
2:-1
15:1:10
2:-1
15:1:10
2:-1
15:1:10
2:-1
15:1:10
2:-1
15:1:10
2:-1
15:1:10
2:-1
15:1:10
2:-1
15:1:10
2:-1
0:1:10
-1:-1
1:1:9
-1:-1
3:2:8
0:0
0:2:8
-1:-1
5:2:7
1:-1
0:2:7
-1:-1
0:2:6
-1:-1
0:1:5
-1:-1
5:2:4
1:0
2:2:5
0:-1
1:1:5
-1:-1
4:3:4
1:-1
3:0:4
0:-1
0:1:4
-1:-1
0:1:3
-1:-1
1:1:2
-1:-1

Warmup complete CPU 0 instructions: 1000004 cycles: 417205 (Simulation time: 0 hr 0 min 2 sec) 

0:1:1
-1:-1
1:1:1
-1:-1
2:1:1
0:-1
0:1:1
-1:-1
1:1:1
-1:-1
3:1:1
0:-1
0:1:1
-1:-1
0:9:1
-1:1
0:1:1
-1:-1
0:1:1
-1:-1
0:2:1
-1:1
0:2:1
-1:1
0:1:1
-1:-1
1:3:1
-1:1
1:1:1
-1:-1
2:2:1
0:-1
2:1:1
0:-1
0:2:1
-1:-1
0:1:1
-1:-1
2:1:1
0:-1
1:1:1
-1:-1
0:2:1
-1:1
1:1:1
-1:-1
0:1:1
-1:-1
2:1:1
0:-1
0:0:1
-1:-1
3:1:1
0:-1
4:1:1
1:1
0:1:2
-1:-1
4:1:1
1:-1
5:1:1
1:1
6:1:2
1:0
0:1:3
-1:-1
6:1:2
1:-1
7:1:2
1:0
8:1:3
2:0
8:1:4
2:0
9:1:5
2:-1
0:1:5
-1:-1
8:1:4
2:-1
0:1:4
-1:-1
7:1:3
1:-1
7:1:3
1:0
8:1:4
2:0
0:1:5
-1:-1
0:3:4
-1:0
0:0:3
-1:-1
2:1:2
0:0
3:1:2
0:0
4:1:2
1:0
5:1:3
1:0
6:1:4
1:0
7:1:5
1:-1
0:0:5
-1:-1
8:7:4
2:0
14:6:5
2:1
15:7:7
2:0
1:8:8
-1:0
2:1:7
0:-1
3:1:7
0:-1
4:1:7
1:-1
5:1:7
1:-1
6:1:7
1:-1
7:1:7
1:-1
8:1:7
2:-1
9:1:7
2:-1
10:1:7
2:-1
11:1:7
2:-1
12:1:7
2:-1
13:1:7
2:-1
14:1:7
2:-1
15:1:7
2:-1
15:1:7
2:-1
15:1:7
2:-1
15:1:7
2:-1
15:1:7
2:-1
15:1:7
2:-1
15:1:7
2:-1
15:1:7
2:-1
15:1:7
2:-1
15:1:7
2:-1
15:1:7
2:-1
15:1:7
2:-1
15:1:7
2:-1
15:1:7
2:-1
15:1:7
2:-1
15:1:7
2:-1
15:1:7
2:-1
15:1:7
2:-1
15:1:7
2:-1
15:1:7
2:-1
15:1:7
2:-1
15:1:7
2:-1
15:1:7
2:-1
15:1:7
2:-1
15:1:7
2:-1
15:1:7
2:-1
15:1:7
2:-1
15:1:7
2:-1
15:1:7
2:-1
15:1:7
2:-1
15:1:7
2:-1
15:1:7
2:-1
15:1:7
2:-1
15:1:7
2:-1
15:1:7
2:-1
15:1:7
2:-1
15:1:7
2:-1
15:1:7
2:-1
15:1:7
2:-1
15:1:7
2:-1
15:1:7
2:-1
0:0:7
-1:-1
2:1:6
0:-1
3:1:6
0:-1
4:1:6
1:-1
5:1:6
1:-1
6:1:6
1:-1
7:1:6
1:-1
8:1:6
2:-1
4:2:6
1:-1
12:7:6
2:0
15:9:7
2:1
15:8:9
2:1
1:3:11
-1:-1
2:1:10
0:-1
3:1:10
0:-1
4:1:10
1:-1
5:1:10
1:-1
6:1:10
1:-1
7:1:10
1:-1
8:1:10
2:-1
9:1:10
2:-1
10:1:10
2:-1
0:1:10
-1:-1
0:1:9
-1:-1
11:1:8
2:-1
12:1:8
2:-1
12:1:8
2:-1
0:1:8
-1:-1
10:2:7
2:-1
10:1:7
2:-1
2:1:7
0:-1
8:2:7
2:-1
8:1:7
2:-1
4:1:7
1:-1
7:1:7
1:-1
8:1:7
2:-1
9:1:7
2:-1
10:1:7
2:-1
10:1:7
2:-1
10:1:7
2:-1
10:1:7
2:-1
0:1:7
-1:-1
10:3:6
2:-1
12:2:6
2:0
12:1:7
2:-1
12:1:7
2:-1
13:1:7
2:-1
13:1:7
2:-1
13:1:7
2:-1
13:1:7
2:-1
13:1:7
2:-1
13:1:7
2:-1
13:1:7
2:-1
13:1:7
2:-1
14:1:7
2:-1
15:1:7
2:-1
15:1:7
2:-1
15:1:7
2:-1
15:1:7
2:-1
15:1:7
2:-1
15:1:7
2:-1
15:1:7
2:-1
15:1:7
2:-1
15:1:7
2:-1
15:1:7
2:-1
0:1:7
-1:-1
12:3:6
2:0
12:1:7
2:-1
12:1:7
2:-1
12:1:7
2:-1
12:1:7
2:-1
0:0:7
-1:-1
2:1:6
0:-1
3:1:6
0:-1
4:1:6
1:-1
5:1:6
1:-1
6:1:6
1:-1
7:1:6
1:-1
8:1:6
2:-1
0:0:6
-1:-1
8:5:5
2:0
15:7:6
2:1
15:8:8
2:0
1:6:9
-1:0
2:1:8
0:-1
3:1:8
0:-1
4:1:8
1:-1
5:1:8
1:-1
6:1:8
1:-1
7:1:8
1:-1
8:1:8
2:-1
9:1:8
2:-1
10:1:8
2:-1
11:1:8
2:-1
12:1:8
2:-1
13:1:8
2:-1
14:1:8
2:-1
15:1:8
2:-1
15:1:8
2:-1
15:1:8
2:-1
15:1:8
2:-1
15:1:8
2:-1
15:1:8
2:-1
15:1:8
2:-1
15:1:8
2:-1
15:1:8
2:-1
15:1:8
2:-1
15:1:8
2:-1
15:1:8
2:-1
15:1:8
2:-1
15:1:8
2:-1
15:1:8
2:-1
15:1:8
2:-1
15:1:8
2:-1
15:1:8
2:-1
15:1:8
2:-1
15:1:8
2:-1
15:1:8
2:-1
0:1:8
-1:-1
12:3:7
2:0
0:1:8
-1:-1
11:1:7
2:-1
11:1:7
2:-1
11:1:7
2:-1
11:1:7
2:-1
11:1:7
2:-1
0:1:7
-1:-1
10:1:6
2:-1
10:1:6
2:-1
0:1:6
-1:-1
9:1:5
2:-1
9:1:5
2:-1
10:1:5
2:-1
11:1:5
2:-1
12:1:5
2:-1
12:1:5
2:-1
13:1:5
2:-1
13:1:5
2:-1
13:1:5
2:-1
13:1:5
2:-1
13:1:5
2:-1
0:0:5
-1:-1
2:1:4
0:0
3:1:4
0:0
4:1:4
1:0
5:1:5
1:-1
0:1:5
-1:-1
6:2:4
1:0
7:1:5
1:-1
8:1:5
2:-1
9:1:5
2:-1
0:0:5
-1:-1
6:3:4
1:0
13:6:5
2:0
15:7:6
2:0
1:7:7
-1:0
2:1:6
0:-1
0:1:6
-1:-1
3:1:5
0:-1
0:1:5
-1:-1
4:2:4
1:0
5:1:5
1:-1
Heartbeat CPU 0 instructions: 10000003 cycles: 9044804 heartbeat IPC: 1.10561 cumulative IPC: 1.04316 (Simulation time: 0 hr 0 min 30 sec) 
6:1:5
1:-1
0:1:5
-1:-1
7:1:4
1:-1
8:1:4
2:0
9:1:5
2:-1
10:1:5
2:-1
11:1:5
2:-1
11:1:5
2:-1
11:1:5
2:-1
11:1:5
2:-1
Finished CPU 0 instructions: 10000003 cycles: 9570868 cumulative IPC: 1.04484 (Simulation time: 0 hr 0 min 34 sec) 

CPU 0 Branch Prediction Accuracy: 99.5201% MPKI: 0.750799 Average ROB Occupancy at Mispredict: 294.044

ChampSim completed all CPUs

Region of Interest Statistics

CPU 0 cumulative IPC: 1.04484 instructions: 10000003 cycles: 9570868
L1D TOTAL     ACCESS:    2446975  HIT:    2446271  MISS:        704
L1D LOAD      ACCESS:     957641  HIT:     957625  MISS:         16
L1D RFO       ACCESS:     724431  HIT:     724193  MISS:        238
L1D PREFETCH  ACCESS:     764903  HIT:     764453  MISS:        450
L1D WRITEBACK ACCESS:          0  HIT:          0  MISS:          0
L1D PREFETCH  REQUESTED:     890266  ISSUED:     889794  USEFUL:        729  USELESS:         81
L1D AVERAGE MISS LATENCY: 59691.6 cycles
L1I TOTAL     ACCESS:    2571143  HIT:    2571143  MISS:          0
L1I LOAD      ACCESS:    2571143  HIT:    2571143  MISS:          0
L1I RFO       ACCESS:          0  HIT:          0  MISS:          0
L1I PREFETCH  ACCESS:          0  HIT:          0  MISS:          0
L1I WRITEBACK ACCESS:          0  HIT:          0  MISS:          0
L1I PREFETCH  REQUESTED:          0  ISSUED:          0  USEFUL:          0  USELESS:          0
L1I AVERAGE MISS LATENCY: -nan cycles
L2C TOTAL     ACCESS:       2609  HIT:       1922  MISS:        687
L2C LOAD      ACCESS:          9  HIT:          0  MISS:          9
L2C RFO       ACCESS:        238  HIT:          3  MISS:        235
L2C PREFETCH  ACCESS:       2095  HIT:       1652  MISS:        443
L2C WRITEBACK ACCESS:        267  HIT:        267  MISS:          0
L2C PREFETCH  REQUESTED:       4093  ISSUED:       4084  USEFUL:         72  USELESS:          0
L2C AVERAGE MISS LATENCY: 125.162 cycles
LLC TOTAL     ACCESS:        687  HIT:          0  MISS:        687
LLC LOAD      ACCESS:          9  HIT:          0  MISS:          9
LLC RFO       ACCESS:        235  HIT:          0  MISS:        235
LLC PREFETCH  ACCESS:        443  HIT:          0  MISS:        443
LLC WRITEBACK ACCESS:          0  HIT:          0  MISS:          0
LLC PREFETCH  REQUESTED:          0  ISSUED:          0  USEFUL:          0  USELESS:          0
LLC AVERAGE MISS LATENCY: 95.1368 cycles
Major fault: 0 Minor fault: 62
CPU 0 L2C next line prefetcher final stats

DRAM Statistics
 CHANNEL 0
 RQ ROW_BUFFER_HIT:        544  ROW_BUFFER_MISS:        143
 DBUS_CONGESTED:        168
 WQ ROW_BUFFER_HIT:          0  ROW_BUFFER_MISS:          0  FULL:          0

 AVG_CONGESTED_CYCLE: 6
