
*** ChampSim Multicore Out-of-Order Simulator ***

Warmup Instructions: 1000000
Simulation Instructions: 10000000
Number of CPUs: 1
LLC sets: 2048
LLC ways: 16
Off-chip DRAM Size: 4096 MB Channels: 1 Width: 64-bit Data Rate: 3200 MT/s

CPU 0 runs /home/light/7th-Sem/cs622/project/ChampSim/dpc3_traces/657.xz_s-3167B.champsimtrace.xz
1:18:4
-1:-1
0:4:3
-1:0
0:1:2
-1:-1
0:12:1
-1:-1
0:2:1
-1:-1
0:1:1
-1:-1
0:2:1
-1:-1
0:0:1
-1:-1
0:3:1
-1:-1
0:21:1
-1:-1
2:8:1
0:-1
3:6:1
0:1
2:3:2
0:1
0:1:3
-1:0
0:2:2
-1:0
0:1:1
-1:-1
0:15:1
-1:-1
0:4:1
-1:-1
0:5:1
-1:-1
0:2:1
-1:-1
0:0:1
-1:-1
0:0:1
-1:-1
7:2:1
1:-1
0:3:1
-1:-1
0:1:1
-1:-1
0:2:1
-1:-1
0:2:1
-1:1
0:3:1
-1:-1
1:2:1
-1:-1
0:0:1
-1:-1
0:2:1
-1:-1
0:1:1
-1:-1
0:0:1
-1:-1
0:3:1
-1:1
0:4:1
-1:1
0:1:1
-1:-1
0:1:1
-1:-1
0:3:1
-1:-1
0:0:1
-1:-1
0:1:1
-1:-1
0:1:1
-1:-1
1:2:1
-1:-1
0:2:1
-1:-1
0:2:1
-1:-1
0:1:1
-1:-1
0:0:1
-1:-1
0:0:1
-1:-1
0:3:1
-1:-1
0:7:1
-1:-1
0:4:1
-1:-1
0:2:1
-1:-1
0:0:1
-1:-1
0:2:1
-1:1
0:5:1
-1:1
0:1:1
-1:-1
0:2:1
-1:1
0:0:1
-1:-1
0:2:1
-1:1
0:0:1
-1:-1
0:3:1
-1:-1
2:3:1
0:-1
0:1:1
-1:-1
0:5:1
-1:-1
1:1:1
-1:-1
0:0:1
-1:-1
0:5:1
-1:1
1:1:1
-1:-1
0:0:1
-1:-1
0:3:1
-1:-1
0:4:1
-1:-1
0:0:1
-1:-1
0:0:1
-1:-1
0:2:1
-1:-1
0:3:1
-1:-1
0:5:1
-1:-1
3:6:1
0:1
0:2:2
-1:-1
0:6:1
-1:-1
0:3:1
-1:1
0:6:1
-1:-1
2:10:1
0:-1
3:3:1
0:1
0:1:2
-1:-1
0:4:1
-1:1
0:1:1
-1:-1
0:2:1
-1:-1
0:0:1
-1:-1
0:6:1
-1:-1
2:3:1
0:-1
0:5:1
-1:-1
0:6:1
-1:-1
0:1:1
-1:-1
0:3:1
-1:-1
0:5:1
-1:-1
0:0:1
-1:-1
0:3:1
-1:1
0:2:1
-1:1
0:0:1
-1:-1
0:6:1
-1:-1
0:8:1
-1:-1
0:1:1
-1:-1
0:3:1
-1:1
0:0:1
-1:-1
0:3:1
-1:-1
0:1:1
-1:-1
0:2:1
-1:-1
0:1:1
-1:-1
0:1:1
-1:-1
0:2:1
-1:-1
0:1:1
-1:-1
0:1:1
-1:-1
0:2:1
-1:-1
0:3:1
-1:-1
0:1:1
-1:-1
0:2:1
-1:1
0:1:1
-1:-1
0:1:1
-1:-1
0:1:1
-1:-1
0:6:1
-1:1
0:3:1
-1:-1
0:5:1
-1:-1
1:7:1
-1:-1
1:2:1
-1:-1
0:3:1
-1:-1
0:1:1
-1:-1
0:1:1
-1:-1
0:6:1
-1:-1
0:1:1
-1:-1
0:0:1
-1:-1
0:4:1
-1:-1
0:9:1
-1:-1
0:7:1
-1:-1
0:0:1
-1:-1
0:1:1
-1:-1
0:1:1
-1:-1
0:0:1
-1:-1
0:4:1
-1:-1
0:2:1
-1:-1
0:1:1
-1:1
0:3:1
-1:-1
0:1:1
-1:-1
0:0:1
-1:-1
1:3:1
-1:1
0:2:1
-1:-1
0:3:1
-1:-1
3:10:1
0:-1
1:0:1
-1:-1
2:2:1
0:-1
0:4:1
-1:-1
6:11:1
1:-1
6:5:1
1:-1
0:0:1
-1:-1
2:5:1
0:-1
0:5:1
-1:-1
2:2:1
0:-1
0:2:1
-1:-1
0:0:1
-1:-1
0:3:1
-1:-1
0:5:1
-1:-1
0:3:1
-1:1
0:6:1
-1:1
0:0:1
-1:-1
0:1:1
-1:-1
0:1:1
-1:-1
0:9:1
-1:1
0:2:1
-1:-1
1:2:1
-1:-1
0:1:1
-1:-1
0:1:1
-1:-1
0:1:1
-1:1
0:2:1
-1:-1
0:4:1
-1:-1
2:6:1
0:-1
0:3:1
-1:-1
0:10:1
-1:-1
0:2:1
-1:-1
0:5:1
-1:-1
0:3:1
-1:-1
5:12:1
1:1
0:2:2
-1:-1
0:0:1
-1:-1
2:5:1
0:-1
0:3:1
-1:-1
0:0:1
-1:-1
0:16:1
-1:-1
0:8:1
-1:1
0:2:1
-1:-1
0:6:1
-1:1
0:1:1
-1:-1
0:3:1
-1:-1
0:6:1
-1:1
0:12:1
-1:-1
1:2:1
-1:-1
0:0:1
-1:-1
0:2:1
-1:-1
0:9:1
-1:1
0:2:1
-1:-1
0:2:1
-1:-1
2:7:1
0:-1
0:6:1
-1:-1
0:6:1
-1:-1
0:0:1
-1:-1
0:5:1
-1:-1
2:6:1
0:-1
0:2:1
-1:-1
0:8:1
-1:-1
0:19:1
-1:1
0:1:1
-1:-1
0:3:1
-1:1
0:2:1
-1:-1
0:4:1
-1:-1
1:6:1
-1:-1
1:1:1
-1:-1
0:9:1
-1:-1
0:4:1
-1:-1
0:4:1
-1:-1
1:2:1
-1:-1
0:2:1
-1:-1
0:0:1
-1:-1
0:3:1
-1:-1
0:3:1
-1:-1
0:3:1
-1:1
0:6:1
-1:-1
0:4:1
-1:-1
0:0:1
-1:-1
0:9:1
-1:-1
0:13:1
-1:1
0:2:1
-1:-1
0:3:1
-1:-1
0:2:1
-1:-1
2:8:1
0:-1
1:3:1
-1:-1
0:14:1
-1:-1
0:5:1
-1:-1
0:3:1
-1:-1
0:2:1
-1:-1
0:2:1
-1:-1
0:5:1
-1:1
0:0:1
-1:-1
0:2:1
-1:-1
0:5:1
-1:-1
3:6:1
0:1
0:1:2
-1:-1
0:3:1
-1:-1
0:6:1
-1:1
1:3:1
-1:-1
0:5:1
-1:-1
0:2:1
-1:-1
0:9:1
-1:1
0:7:1
-1:1
0:2:1
-1:-1
0:3:1
-1:-1
0:13:1
-1:-1
0:9:1
-1:-1
0:3:1
-1:-1
0:0:1
-1:-1
0:7:1
-1:1
0:0:1
-1:-1
0:9:1
-1:-1
0:1:1
-1:-1
0:3:1
-1:-1
0:2:1
-1:-1
0:2:1
-1:-1
0:1:1
-1:-1
0:6:1
-1:-1
0:6:1
-1:-1
0:4:1
-1:-1
0:2:1
-1:-1
0:6:1
-1:-1
0:5:1
-1:-1
0:4:1
-1:1
0:3:1
-1:-1
0:0:1
-1:-1
0:1:1
-1:-1
0:6:1
-1:1
0:1:1
-1:-1
0:5:1
-1:-1
0:5:1
-1:-1
0:1:1
-1:-1
0:2:1
-1:1
0:2:1
-1:-1
0:2:1
-1:-1
0:2:1
-1:-1
1:2:1
-1:1
1:4:1
-1:1
0:3:1
-1:-1
0:4:1
-1:-1
0:4:1
-1:-1
0:5:1
-1:1
0:0:1
-1:-1
0:7:1
-1:1
0:3:1
-1:-1
0:1:1
-1:-1
0:0:1
-1:-1
0:1:1
-1:-1
0:1:1
-1:-1
0:3:1
-1:-1
0:4:1
-1:1
2:4:1
0:-1
0:1:1
-1:-1
0:0:1
-1:-1
1:2:1
-1:-1
0:0:1
-1:-1
0:6:1
-1:-1
0:7:1
-1:1
0:7:1
-1:1
0:1:1
-1:-1
0:3:1
-1:-1
0:1:1
-1:-1
0:0:1
-1:-1
0:3:1
-1:-1
0:14:1
-1:-1
0:6:1
-1:1
1:4:1
-1:-1
0:3:1
-1:-1
0:12:1
-1:1
0:7:1
-1:-1
0:7:1
-1:-1
0:19:1
-1:-1
0:8:1
-1:-1
0:4:1
-1:-1
0:10:1
-1:-1
0:4:1
-1:1
0:1:1
-1:-1
0:5:1
-1:-1
0:3:1
-1:-1
0:5:1
-1:-1
1:2:1
-1:-1
0:5:1
-1:-1
0:4:1
-1:1
0:1:1
-1:-1
0:8:1
-1:-1
0:2:1
-1:-1
0:7:1
-1:-1
0:11:1
-1:-1
0:11:1
-1:1
0:3:1
-1:-1
0:4:1
-1:-1
0:10:1
-1:-1
2:6:1
0:1
0:4:2
-1:1
0:2:2
-1:-1
0:1:1
-1:-1
0:14:1
-1:1
0:6:1
-1:-1
0:8:1
-1:-1
0:12:1
-1:-1
0:1:1
-1:-1
0:2:1
-1:-1
0:2:1
-1:-1
0:0:1
-1:-1
1:7:1
-1:-1
0:12:1
-1:-1
0:6:1
-1:-1
2:1:1
0:-1
0:1:1
-1:-1
0:3:1
-1:-1
2:6:1
0:-1
0:3:1
-1:-1
0:9:1
-1:-1
1:5:1
-1:-1
0:3:1
-1:1

Warmup complete CPU 0 instructions: 1000003 cycles: 584360 (Simulation time: 0 hr 0 min 2 sec) 

0:2:1
-1:-1
0:0:1
-1:-1
0:1:1
-1:-1
4:3:1
1:1
0:2:2
-1:0
0:6:1
-1:1
0:8:1
-1:-1
0:3:1
-1:-1
0:7:1
-1:1
0:6:1
-1:-1
0:11:1
-1:1
0:0:1
-1:-1
0:2:1
-1:-1
0:0:1
-1:-1
0:4:1
-1:-1
0:4:1
-1:1
0:5:1
-1:1
0:0:1
-1:-1
0:2:1
-1:-1
0:5:1
-1:1
0:2:1
-1:1
0:3:1
-1:-1
0:1:1
-1:-1
1:2:1
-1:-1
0:2:1
-1:1
0:3:1
-1:1
1:4:1
-1:-1
2:0:1
0:-1
0:2:1
-1:-1
1:1:1
-1:-1
0:3:1
-1:-1
0:1:1
-1:-1
0:0:1
-1:-1
0:0:1
-1:-1
1:5:1
-1:-1
0:7:1
-1:-1
0:6:1
-1:-1
0:2:1
-1:1
0:1:1
-1:-1
2:5:1
0:-1
0:1:1
-1:-1
0:5:1
-1:-1
2:8:1
0:1
5:3:2
1:-1
0:6:2
-1:0
2:6:1
0:-1
0:2:1
-1:1
0:1:1
-1:-1
0:3:1
-1:-1
0:1:1
-1:-1
0:1:1
-1:1
0:0:1
-1:-1
0:1:1
-1:1
0:1:1
-1:-1
0:0:1
-1:-1
0:3:1
-1:-1
0:1:1
-1:-1
0:1:1
-1:-1
0:3:1
-1:-1
0:3:1
-1:-1
0:3:1
-1:-1
0:1:1
-1:-1
0:0:1
-1:-1
0:1:1
-1:-1
0:6:1
-1:1
0:0:1
-1:-1
2:1:1
0:-1
0:1:1
-1:-1
0:1:1
-1:1
0:0:1
-1:-1
0:1:1
-1:-1
0:1:1
-1:-1
0:9:1
-1:1
0:3:1
-1:1
2:3:1
0:-1
0:5:1
-1:-1
0:2:1
-1:-1
0:1:1
-1:-1
1:1:1
-1:-1
0:2:1
-1:1
2:4:1
0:-1
0:7:1
-1:-1
0:3:1
-1:-1
0:1:1
-1:-1
0:8:1
-1:1
0:1:1
-1:-1
0:4:1
-1:1
0:1:1
-1:-1
0:10:1
-1:1
0:7:1
-1:1
0:4:1
-1:1
0:1:1
-1:-1
0:0:1
-1:-1
0:0:1
-1:-1
0:0:1
-1:-1
0:1:1
-1:-1
0:0:1
-1:-1
0:0:1
-1:-1
0:1:1
-1:-1
4:4:1
1:-1
0:1:1
-1:-1
0:0:1
-1:-1
0:1:1
-1:-1
0:2:1
-1:1
0:1:1
-1:-1
0:0:1
-1:-1
0:0:1
-1:-1
0:1:1
-1:-1
2:3:1
0:1
0:1:2
-1:-1
0:1:1
-1:-1
0:1:1
-1:-1
0:0:1
-1:-1
0:4:1
-1:1
0:2:1
-1:-1
1:2:1
-1:-1
0:1:1
-1:-1
0:0:1
-1:-1
0:1:1
-1:-1
1:3:1
-1:1
0:1:1
-1:-1
0:1:1
-1:-1
2:2:1
0:-1
1:2:1
-1:-1
2:1:1
0:-1
0:2:1
-1:-1
0:0:1
-1:-1
0:1:1
-1:-1
0:1:1
-1:1
0:1:1
-1:-1
0:1:1
-1:-1
0:2:1
-1:-1
0:1:1
-1:-1
0:2:1
-1:-1
0:1:1
-1:-1
0:1:1
-1:-1
4:5:1
1:-1
0:5:1
-1:-1
0:1:1
-1:-1
0:2:1
-1:1
0:0:1
-1:-1
1:2:1
-1:-1
0:1:1
-1:-1
0:13:1
-1:1
0:7:1
-1:-1
0:4:1
-1:1
0:0:1
-1:-1
0:2:1
-1:-1
0:3:1
-1:-1
0:2:1
-1:1
0:1:1
-1:-1
0:0:1
-1:-1
0:2:1
-1:-1
0:11:1
-1:1
0:13:1
-1:-1
0:6:1
-1:-1
0:4:1
-1:1
1:5:1
-1:1
0:5:1
-1:-1
0:13:1
-1:-1
0:7:1
-1:-1
0:4:1
-1:1
0:11:1
-1:-1
0:1:1
-1:-1
0:2:1
-1:1
3:1:1
0:-1
0:1:1
-1:-1
4:4:1
1:-1
2:6:1
0:-1
1:10:1
-1:-1
1:1:1
-1:-1
0:1:1
-1:-1
0:2:1
-1:1
0:0:1
-1:-1
0:1:1
-1:-1
0:4:1
-1:1
2:3:1
0:-1
0:2:1
-1:-1
0:7:1
-1:-1
0:7:1
-1:-1
0:1:1
-1:-1
0:5:1
-1:1
0:5:1
-1:1
0:6:1
-1:-1
0:0:1
-1:-1
0:1:1
-1:-1
0:2:1
-1:1
0:12:1
-1:1
0:5:1
-1:-1
0:3:1
-1:-1
0:5:1
-1:1
0:4:1
-1:1
0:13:1
-1:1
0:2:1
-1:1
0:6:1
-1:1
0:4:1
-1:1
0:4:1
-1:-1
0:4:1
-1:1
0:1:1
-1:-1
0:1:1
-1:-1
0:1:1
-1:-1
0:1:1
-1:-1
0:1:1
-1:-1
0:0:1
-1:-1
0:3:1
-1:-1
0:0:1
-1:-1
0:1:1
-1:-1
0:3:1
-1:-1
0:0:1
-1:-1
0:5:1
-1:-1
0:1:1
-1:-1
0:5:1
-1:-1
0:5:1
-1:1
0:3:1
-1:1
0:0:1
-1:-1
0:1:1
-1:-1
0:1:1
-1:-1
0:2:1
-1:-1
1:1:1
-1:-1
0:1:1
-1:-1
0:0:1
-1:-1
0:1:1
-1:-1
0:1:1
-1:1
1:0:1
-1:-1
0:1:1
-1:-1
0:3:1
-1:-1
0:7:1
-1:1
0:6:1
-1:1
0:7:1
-1:1
0:2:1
-1:1
0:2:1
-1:-1
0:0:1
-1:-1
0:0:1
-1:-1
0:3:1
-1:-1
1:5:1
-1:1
0:6:1
-1:-1
0:11:1
-1:-1
0:17:1
-1:1
0:13:1
-1:1
0:1:1
-1:-1
0:3:1
-1:1
0:1:1
-1:-1
0:9:1
-1:-1
0:5:1
-1:-1
1:10:1
-1:1
0:6:1
-1:-1
0:0:1
-1:-1
0:1:1
-1:-1
0:5:1
-1:-1
0:1:1
-1:-1
0:2:1
-1:-1
1:1:1
-1:-1
0:0:1
-1:-1
0:0:1
-1:-1
0:0:1
-1:-1
0:5:1
-1:-1
3:1:1
0:-1
0:0:1
-1:-1
0:0:1
-1:-1
0:5:1
-1:-1
0:1:1
-1:-1
1:1:1
-1:-1
0:1:1
-1:1
0:0:1
-1:-1
0:5:1
-1:-1
0:1:1
-1:-1
1:1:1
-1:-1
0:1:1
-1:-1
0:1:1
-1:-1
0:1:1
-1:-1
0:0:1
-1:-1
0:0:1
-1:-1
0:2:1
-1:-1
1:5:1
-1:-1
0:7:1
-1:-1
0:2:1
-1:-1
0:5:1
-1:1
0:0:1
-1:-1
0:9:1
-1:-1
0:3:1
-1:-1
0:4:1
-1:1
0:4:1
-1:1
0:2:1
-1:-1
0:1:1
-1:-1
0:0:1
-1:-1
0:1:1
-1:-1
2:3:1
0:1
0:3:2
-1:-1
0:0:1
-1:-1
0:1:1
-1:-1
0:1:1
-1:1
0:3:1
-1:-1
0:0:1
-1:-1
0:1:1
-1:-1
1:6:1
-1:1
0:2:1
-1:-1
0:3:1
-1:-1
0:0:1
-1:-1
0:9:1
-1:-1
0:6:1
-1:-1
1:4:1
-1:1
0:1:1
-1:-1
0:2:1
-1:1
0:1:1
-1:-1
0:1:1
-1:-1
0:4:1
-1:1
0:12:1
-1:1
0:11:1
-1:-1
0:5:1
-1:1
0:9:1
-1:1
1:3:1
-1:1
3:3:1
0:-1
0:3:1
-1:-1
0:15:1
-1:1
0:6:1
-1:-1
0:14:1
-1:1
0:4:1
-1:-1
0:1:1
-1:-1
1:4:1
-1:1
0:9:1
-1:-1
0:8:1
-1:1
0:6:1
-1:-1
0:2:1
-1:-1
0:0:1
-1:-1
5:1:1
1:-1
0:5:1
-1:-1
0:13:1
-1:1
0:50:1
-1:1
0:7:1
-1:1
0:6:1
-1:-1
1:3:1
-1:-1
0:0:1
-1:-1
0:2:1
-1:-1
0:2:1
-1:-1
0:0:1
-1:-1
0:2:1
-1:-1
0:1:1
-1:-1
0:2:1
-1:-1
0:2:1
-1:-1
0:2:1
-1:-1
2:3:1
0:1
0:1:2
-1:-1
0:1:1
-1:-1
0:6:1
-1:-1
0:4:1
-1:-1
3:2:1
0:-1
0:2:1
-1:-1
0:1:1
-1:-1
0:3:1
-1:-1
0:2:1
-1:1
0:3:1
-1:-1
1:4:1
-1:-1
0:8:1
-1:-1
0:2:1
-1:-1
0:2:1
-1:-1
0:4:1
-1:1
2:2:1
0:-1
0:1:1
-1:-1
3:3:1
0:1
0:1:2
-1:-1
0:2:1
-1:-1
1:4:1
-1:-1
0:1:1
-1:-1
0:0:1
-1:-1
1:7:1
-1:-1
0:5:1
-1:-1
0:10:1
-1:1
0:6:1
-1:-1
1:1:1
-1:-1
0:1:1
-1:-1
0:2:1
-1:-1
0:2:1
-1:-1
0:5:1
-1:-1
0:2:1
-1:-1
0:3:1
-1:-1
0:2:1
-1:-1
0:2:1
-1:-1
0:1:1
-1:-1
0:1:1
-1:-1
0:2:1
-1:-1
0:4:1
-1:1
1:1:1
-1:-1
0:1:1
-1:-1
2:10:1
0:1
0:4:2
-1:-1
0:1:1
-1:-1
0:1:1
-1:-1
4:4:1
1:-1
0:8:1
-1:-1
0:6:1
-1:-1
0:3:1
-1:-1
2:6:1
0:1
1:8:2
-1:-1
0:0:1
-1:-1
0:3:1
-1:-1
2:4:1
0:1
1:4:2
-1:-1
0:1:1
-1:-1
0:3:1
-1:1
2:3:1
0:-1
0:3:1
-1:-1
0:4:1
-1:-1
0:5:1
-1:1
0:1:1
-1:-1
0:14:1
-1:1
6:2:1
1:1
1:5:2
-1:0
0:4:1
-1:-1
0:10:1
-1:-1
0:6:1
-1:1
0:2:1
-1:-1
0:1:1
-1:-1
0:1:1
-1:-1
0:0:1
-1:-1
0:2:1
-1:-1
0:1:1
-1:-1
0:0:1
-1:-1
0:2:1
-1:-1
0:3:1
-1:-1
0:2:1
-1:-1
0:12:1
-1:1
0:14:1
-1:1
2:1:1
0:-1
0:3:1
-1:-1
0:6:1
-1:-1
0:3:1
-1:-1
8:13:1
2:-1
0:35:1
-1:-1
6:9:1
1:1
0:0:2
-1:-1
1:25:1
-1:-1
0:8:1
-1:1
0:4:1
-1:-1
0:0:1
-1:-1
0:4:1
-1:-1
0:2:1
-1:-1
0:10:1
-1:-1
0:2:1
-1:-1
0:2:1
-1:1
0:3:1
-1:-1
0:2:1
-1:-1
0:1:1
-1:-1
0:5:1
-1:1
0:4:1
-1:1
0:0:1
-1:-1
0:1:1
-1:-1
0:9:1
-1:1
0:3:1
-1:1
0:13:1
-1:1
0:7:1
-1:-1
1:2:1
-1:-1
0:1:1
-1:-1
0:4:1
-1:-1
0:5:1
-1:-1
0:2:1
-1:-1
0:1:1
-1:-1
1:1:1
-1:-1
0:3:1
-1:-1
0:2:1
-1:-1
0:1:1
-1:-1
0:7:1
-1:-1
2:2:1
0:1
0:1:2
-1:-1
0:1:1
-1:-1
1:8:1
-1:-1
0:6:1
-1:-1
0:1:1
-1:1
0:0:1
-1:-1
0:1:1
-1:-1
0:1:1
-1:-1
0:5:1
-1:1
3:4:1
0:-1
0:1:1
-1:-1
0:3:1
-1:1
0:1:1
-1:-1
0:4:1
-1:1
0:2:1
-1:-1
0:3:1
-1:-1
0:5:1
-1:-1
0:4:1
-1:1
2:5:1
0:-1
0:10:1
-1:-1
0:8:1
-1:1
0:2:1
-1:-1
0:3:1
-1:-1
0:1:1
-1:-1
0:3:1
-1:1
0:0:1
-1:-1
2:2:1
0:-1
0:5:1
-1:-1
0:3:1
-1:1
0:4:1
-1:1
0:4:1
-1:-1
0:1:1
-1:1
0:1:1
-1:-1
0:3:1
-1:1
0:2:1
-1:1
0:4:1
-1:-1
0:8:1
-1:1
0:10:1
-1:1
0:5:1
-1:1
0:7:1
-1:1
0:0:1
-1:-1
0:2:1
-1:-1
0:4:1
-1:1
0:3:1
-1:-1
0:1:1
-1:-1
0:4:1
-1:-1
1:1:1
-1:-1
2:3:1
0:-1
2:3:1
0:1
0:1:2
-1:-1
0:29:1
-1:1
0:1:1
-1:-1
0:6:1
-1:-1
0:3:1
-1:1
0:3:1
-1:-1
0:1:1
-1:-1
0:0:1
-1:-1
0:0:1
-1:-1
0:1:1
-1:-1
0:4:1
-1:1
0:5:1
-1:1
0:3:1
-1:-1
1:5:1
-1:1
0:0:1
-1:-1
0:1:1
-1:-1
0:2:1
-1:-1
1:0:1
-1:-1
0:8:1
-1:-1
0:4:1
-1:-1
0:1:1
-1:-1
0:1:1
-1:-1
0:0:1
-1:-1
0:1:1
-1:-1
0:0:1
-1:-1
0:0:1
-1:-1
0:0:1
-1:-1
2:0:1
0:-1
2:0:1
0:-1
0:1:1
-1:-1
0:1:1
-1:-1
0:2:1
-1:-1
0:1:1
-1:-1
2:3:1
0:-1
0:1:1
-1:-1
0:0:1
-1:-1
0:0:1
-1:-1
0:1:1
-1:-1
0:1:1
-1:1
2:1:1
0:-1
0:2:1
-1:-1
0:1:1
-1:-1
1:3:1
-1:1
0:0:1
-1:-1
0:5:1
-1:1
0:2:1
-1:1
0:5:1
-1:-1
0:0:1
-1:-1
0:1:1
-1:-1
0:0:1
-1:-1
0:0:1
-1:-1
0:2:1
-1:-1
0:1:1
-1:-1
0:4:1
-1:-1
0:1:1
-1:-1
0:0:1
-1:-1
0:2:1
-1:-1
0:2:1
-1:-1
0:2:1
-1:-1
0:3:1
-1:-1
0:0:1
-1:-1
0:0:1
-1:-1
1:0:1
-1:-1
0:0:1
-1:-1
2:4:1
0:-1
0:1:1
-1:-1
0:1:1
-1:-1
0:0:1
-1:-1
0:0:1
-1:-1
0:1:1
-1:-1
0:2:1
-1:-1
0:3:1
-1:-1
0:2:1
-1:-1
0:0:1
-1:-1
0:1:1
-1:-1
0:1:1
-1:-1
0:4:1
-1:-1
0:0:1
-1:-1
0:0:1
-1:-1
0:1:1
-1:-1
1:1:1
-1:1
0:2:1
-1:-1
0:0:1
-1:-1
0:0:1
-1:-1
0:2:1
-1:-1
0:0:1
-1:-1
0:1:1
-1:-1
0:0:1
-1:-1
0:0:1
-1:-1
0:1:1
-1:-1
0:0:1
-1:-1
0:0:1
-1:-1
0:0:1
-1:-1
0:2:1
-1:-1
0:1:1
-1:-1
0:2:1
-1:-1
0:0:1
-1:-1
0:1:1
-1:-1
0:2:1
-1:-1
0:0:1
-1:-1
0:0:1
-1:-1
0:1:1
-1:-1
0:0:1
-1:-1
0:0:1
-1:-1
0:0:1
-1:-1
3:2:1
0:-1
0:2:1
-1:-1
0:0:1
-1:-1
0:2:1
-1:-1
0:2:1
-1:1
0:0:1
-1:-1
0:0:1
-1:-1
0:2:1
-1:-1
0:2:1
-1:-1
0:0:1
-1:-1
0:8:1
-1:-1
5:3:1
1:1
2:3:2
0:-1
0:3:2
-1:0
0:1:1
-1:-1
1:1:1
-1:-1
0:6:1
-1:1
0:3:1
-1:1
0:1:1
-1:-1
0:2:1
-1:-1
2:4:1
0:-1
0:0:1
-1:-1
0:2:1
-1:-1
0:3:1
-1:-1
0:3:1
-1:-1
0:0:1
-1:-1
1:0:1
-1:-1
0:1:1
-1:-1
0:5:1
-1:1
0:3:1
-1:1
0:6:1
-1:-1
1:2:1
-1:-1
0:1:1
-1:-1
0:2:1
-1:-1
0:1:1
-1:-1
0:3:1
-1:-1
0:3:1
-1:1
0:1:1
-1:-1
1:2:1
-1:-1
0:1:1
-1:-1
0:0:1
-1:-1
0:0:1
-1:-1
0:1:1
-1:-1
0:0:1
-1:-1
0:0:1
-1:-1
0:1:1
-1:-1
0:3:1
-1:1
0:2:1
-1:-1
0:2:1
-1:-1
0:4:1
-1:1
0:0:1
-1:-1
0:1:1
-1:-1
0:1:1
-1:-1
0:3:1
-1:1
1:6:1
-1:1
0:3:1
-1:1
0:1:1
-1:-1
0:3:1
-1:-1
1:0:1
-1:-1
0:0:1
-1:-1
0:1:1
-1:-1
0:0:1
-1:-1
0:0:1
-1:-1
0:1:1
-1:-1
0:0:1
-1:-1
0:1:1
-1:-1
0:0:1
-1:-1
0:0:1
-1:-1
0:1:1
-1:-1
0:2:1
-1:1
2:1:1
0:-1
0:1:1
-1:-1
2:0:1
0:-1
0:3:1
-1:-1
0:1:1
-1:-1
0:2:1
-1:-1
0:0:1
-1:-1
0:0:1
-1:-1
0:0:1
-1:-1
0:1:1
-1:-1
0:0:1
-1:-1
0:1:1
-1:-1
0:0:1
-1:-1
0:1:1
-1:-1
0:1:1
-1:-1
0:1:1
-1:-1
0:7:1
-1:-1
0:3:1
-1:1
0:0:1
-1:-1
0:2:1
-1:-1
2:5:1
0:-1
0:4:1
-1:-1
2:3:1
0:-1
0:6:1
-1:-1
2:1:1
0:1
0:0:2
-1:-1
0:0:1
-1:-1
0:2:1
-1:-1
0:2:1
-1:-1
0:3:1
-1:-1
0:0:1
-1:-1
0:1:1
-1:-1
0:5:1
-1:1
0:1:1
-1:-1
2:5:1
0:1
0:6:2
-1:-1
2:0:1
0:-1
0:0:1
-1:-1
0:1:1
-1:-1
0:1:1
-1:-1
0:1:1
-1:-1
0:4:1
-1:-1
2:1:1
0:-1
0:3:1
-1:-1
0:3:1
-1:-1
1:1:1
-1:-1
0:3:1
-1:1
0:0:1
-1:-1
0:1:1
-1:-1
0:0:1
-1:-1
0:0:1
-1:-1
0:1:1
-1:-1
0:0:1
-1:-1
0:2:1
-1:-1
0:2:1
-1:-1
0:3:1
-1:-1
1:1:1
-1:-1
0:2:1
-1:-1
0:2:1
-1:-1
0:2:1
-1:-1
0:0:1
-1:-1
4:5:1
1:-1
0:4:1
-1:1
0:5:1
-1:-1
0:1:1
-1:-1
0:2:1
-1:1
0:1:1
-1:-1
0:2:1
-1:1
2:0:1
0:-1
0:0:1
-1:-1
0:0:1
-1:-1
0:1:1
-1:-1
0:5:1
-1:1
0:2:1
-1:-1
0:4:1
-1:-1
0:1:1
-1:-1
0:2:1
-1:-1
0:2:1
-1:-1
0:4:1
-1:-1
1:4:1
-1:1
0:4:1
-1:-1
0:1:1
-1:-1
0:0:1
-1:-1
0:2:1
-1:1
0:0:1
-1:-1
0:0:1
-1:-1
0:4:1
-1:1
0:3:1
-1:-1
0:1:1
-1:-1
0:1:1
-1:-1
0:2:1
-1:1
2:4:1
0:1
0:2:2
-1:-1
0:1:1
-1:-1
0:1:1
-1:-1
0:0:1
-1:-1
0:1:1
-1:-1
0:4:1
-1:-1
0:0:1
-1:-1
0:0:1
-1:-1
0:1:1
-1:-1
0:3:1
-1:-1
0:6:1
-1:-1
0:4:1
-1:-1
0:5:1
-1:-1
2:1:1
0:1
0:0:2
-1:-1
0:1:1
-1:-1
0:0:1
-1:-1
0:0:1
-1:-1
0:0:1
-1:-1
0:1:1
-1:-1
0:4:1
-1:1
0:0:1
-1:-1
0:3:1
-1:-1
1:2:1
-1:-1
0:3:1
-1:-1
0:1:1
-1:1
0:1:1
-1:-1
0:3:1
-1:-1
2:3:1
0:-1
0:2:1
-1:-1
0:0:1
-1:-1
0:1:1
-1:-1
0:2:1
-1:-1
0:1:1
-1:-1
0:1:1
-1:-1
2:1:1
0:-1
0:2:1
-1:-1
0:3:1
-1:-1
0:0:1
-1:-1
0:1:1
-1:-1
0:7:1
-1:-1
0:1:1
-1:-1
0:3:1
-1:-1
0:1:1
-1:1
0:0:1
-1:-1
0:2:1
-1:-1
0:3:1
-1:1
0:1:1
-1:-1
0:7:1
-1:1
0:3:1
-1:-1
0:1:1
-1:-1
0:2:1
-1:-1
1:3:1
-1:1
0:1:1
-1:-1
0:2:1
-1:-1
0:6:1
-1:1
0:2:1
-1:-1
0:1:1
-1:-1
0:1:1
-1:-1
0:1:1
-1:-1
0:3:1
-1:-1
0:3:1
-1:-1
0:1:1
-1:-1
0:2:1
-1:-1
0:0:1
-1:-1
0:4:1
-1:-1
0:0:1
-1:-1
0:0:1
-1:-1
0:3:1
-1:-1
0:3:1
-1:-1
0:1:1
-1:1
0:3:1
-1:-1
0:4:1
-1:-1
0:2:1
-1:-1
0:2:1
-1:-1
0:4:1
-1:-1
0:3:1
-1:1
0:5:1
-1:-1
2:6:1
0:1
0:0:2
-1:-1
0:0:1
-1:-1
2:3:1
0:-1
0:5:1
-1:-1
0:1:1
-1:-1
0:2:1
-1:-1
0:3:1
-1:-1
0:4:1
-1:-1
0:0:1
-1:-1
0:0:1
-1:-1
0:1:1
-1:-1
0:6:1
-1:-1
2:8:1
0:1
0:8:2
-1:0
0:1:1
-1:-1
0:2:1
-1:-1
0:1:1
-1:-1
0:2:1
-1:-1
0:0:1
-1:-1
0:3:1
-1:-1
0:0:1
-1:-1
0:0:1
-1:-1
0:1:1
-1:-1
0:6:1
-1:1
0:1:1
-1:-1
0:3:1
-1:-1
0:2:1
-1:-1
0:3:1
-1:-1
0:2:1
-1:1
0:2:1
-1:-1
0:0:1
-1:-1
0:0:1
-1:-1
0:4:1
-1:-1
0:3:1
-1:1
0:3:1
-1:1
2:3:1
0:-1
0:4:1
-1:-1
0:1:1
-1:-1
0:1:1
-1:-1
2:2:1
0:-1
0:3:1
-1:-1
0:0:1
-1:-1
0:1:1
-1:-1
0:3:1
-1:-1
1:3:1
-1:-1
0:4:1
-1:-1
0:0:1
-1:-1
0:3:1
-1:-1
0:2:1
-1:-1
1:5:1
-1:1
0:0:1
-1:-1
0:8:1
-1:-1
0:4:1
-1:-1
0:1:1
-1:-1
0:4:1
-1:-1
0:3:1
-1:-1
1:2:1
-1:-1
1:5:1
-1:-1
0:3:1
-1:-1
0:0:1
-1:-1
0:3:1
-1:-1
2:3:1
0:-1
0:2:1
-1:-1
0:13:1
-1:1
0:5:1
-1:1
0:0:1
-1:-1
0:0:1
-1:-1
0:4:1
-1:-1
2:2:1
0:-1
2:4:1
0:-1
0:5:1
-1:1
2:3:1
0:1
0:11:2
-1:-1
0:6:1
-1:-1
0:2:1
-1:1
0:5:1
-1:-1
0:1:1
-1:-1
0:2:1
-1:1
4:5:1
1:-1
0:0:1
-1:-1
0:8:1
-1:-1
0:0:1
-1:-1
0:4:1
-1:-1
6:10:1
1:-1
0:2:1
-1:-1
9:8:1
2:1
6:13:3
1:-1
0:1:3
-1:-1
0:8:2
-1:0
0:8:1
-1:1
0:10:1
-1:1
0:0:1
-1:-1
0:2:1
-1:-1
0:1:1
-1:-1
0:1:1
-1:-1
0:5:1
-1:-1
0:5:1
-1:-1
0:9:1
-1:1
0:2:1
-1:-1
2:3:1
0:-1
0:6:1
-1:-1
0:3:1
-1:-1
0:1:1
-1:-1
0:2:1
-1:1
0:0:1
-1:-1
0:0:1
-1:-1
0:2:1
-1:-1
0:1:1
-1:-1
0:19:1
-1:1
1:10:1
-1:1
0:1:1
-1:-1
0:1:1
-1:-1
0:5:1
-1:-1
0:2:1
-1:-1
0:1:1
-1:-1
0:0:1
-1:-1
0:5:1
-1:-1
0:4:1
-1:-1
0:1:1
-1:-1
0:7:1
-1:-1
0:0:1
-1:-1
0:0:1
-1:-1
0:3:1
-1:-1
0:1:1
-1:-1
0:3:1
-1:-1
2:3:1
0:-1
0:1:1
-1:-1
0:0:1
-1:-1
0:1:1
-1:-1
0:1:1
-1:-1
1:7:1
-1:1
0:37:1
-1:-1
0:0:1
-1:-1
0:4:1
-1:1
0:2:1
-1:-1
0:0:1
-1:-1
0:1:1
-1:-1
0:1:1
-1:-1
0:0:1
-1:-1
0:0:1
-1:-1
0:2:1
-1:-1
0:5:1
-1:-1
0:12:1
-1:1
0:0:1
-1:-1
0:2:1
-1:-1
0:0:1
-1:-1
0:0:1
-1:-1
0:3:1
-1:-1
0:1:1
-1:-1
0:1:1
-1:-1
0:0:1
-1:-1
0:5:1
-1:-1
0:12:1
-1:1
0:7:1
-1:-1
0:6:1
-1:1
0:7:1
-1:1
0:1:1
-1:1
0:1:1
-1:-1
0:0:1
-1:-1
0:2:1
-1:-1
0:1:1
-1:-1
0:2:1
-1:-1
0:0:1
-1:-1
0:2:1
-1:-1
0:5:1
-1:1
0:4:1
-1:1
0:15:1
-1:1
0:3:1
-1:1
0:5:1
-1:-1
0:3:1
-1:-1
0:1:1
-1:1
0:5:1
-1:-1
0:3:1
-1:-1
0:4:1
-1:1
0:19:1
-1:1
0:1:1
-1:-1
0:4:1
-1:1
0:6:1
-1:-1
0:2:1
-1:1
0:0:1
-1:-1
0:1:1
-1:-1
0:5:1
-1:1
0:4:1
-1:1
0:10:1
-1:1
2:0:1
0:-1
0:1:1
-1:-1
0:3:1
-1:1
0:3:1
-1:-1
0:4:1
-1:1
0:0:1
-1:-1
0:0:1
-1:-1
0:0:1
-1:-1
0:3:1
-1:-1
0:5:1
-1:1
0:26:1
-1:-1
1:6:1
-1:-1
3:5:1
0:-1
0:6:1
-1:-1
0:4:1
-1:1
0:3:1
-1:-1
2:2:1
0:1
0:3:2
-1:-1
2:2:1
0:1
0:0:2
-1:-1
0:1:1
-1:-1
0:5:1
-1:1
1:5:1
-1:-1
0:3:1
-1:-1
0:1:1
-1:1
0:0:1
-1:-1
0:3:1
-1:-1
0:1:1
-1:-1
0:1:1
-1:-1
0:7:1
-1:1
0:4:1
-1:-1
0:4:1
-1:1
1:6:1
-1:-1
0:2:1
-1:1
0:4:1
-1:-1
0:1:1
-1:-1
0:1:1
-1:1
0:0:1
-1:-1
0:3:1
-1:1
0:4:1
-1:1
0:2:1
-1:-1
1:2:1
-1:-1
0:1:1
-1:-1
0:10:1
-1:-1
0:1:1
-1:-1
0:4:1
-1:1
0:5:1
-1:1
0:4:1
-1:-1
0:1:1
-1:1
0:1:1
-1:-1
0:6:1
-1:1
0:8:1
-1:1
0:2:1
-1:-1
0:4:1
-1:1
0:7:1
-1:1
0:2:1
-1:-1
0:1:1
-1:-1
0:3:1
-1:1
0:4:1
-1:1
0:3:1
-1:1
0:1:1
-1:-1
0:9:1
-1:1
0:1:1
-1:-1
0:5:1
-1:-1
3:2:1
0:-1
0:14:1
-1:1
0:6:1
-1:-1
0:8:1
-1:1
2:9:1
0:-1
0:6:1
-1:-1
0:4:1
-1:1
0:2:1
-1:-1
0:7:1
-1:1
0:7:1
-1:1
0:2:1
-1:-1
2:1:1
0:-1
0:3:1
-1:-1
0:7:1
-1:1
0:0:1
-1:-1
0:2:1
-1:-1
0:0:1
-1:-1
0:0:1
-1:-1
0:1:1
-1:-1
0:2:1
-1:-1
0:1:1
-1:-1
0:2:1
-1:-1
0:5:1
-1:1
0:7:1
-1:1
1:1:1
-1:-1
0:0:1
-1:-1
0:1:1
-1:-1
1:3:1
-1:1
0:9:1
-1:-1
0:10:1
-1:1
0:9:1
-1:-1
0:0:1
-1:-1
0:0:1
-1:-1
0:0:1
-1:-1
0:2:1
-1:-1
0:6:1
-1:-1
0:1:1
-1:-1
0:2:1
-1:-1
0:1:1
-1:-1
0:2:1
-1:-1
0:2:1
-1:-1
0:2:1
-1:-1
0:0:1
-1:-1
0:11:1
-1:-1
0:5:1
-1:-1
0:1:1
-1:-1
0:1:1
-1:1
0:1:1
-1:-1
0:7:1
-1:1
0:5:1
-1:-1
0:1:1
-1:-1
0:3:1
-1:-1
0:2:1
-1:-1
0:2:1
-1:-1
0:0:1
-1:-1
0:0:1
-1:-1
0:0:1
-1:-1
0:0:1
-1:-1
0:1:1
-1:-1
0:5:1
-1:-1
0:7:1
-1:-1
0:0:1
-1:-1
0:1:1
-1:-1
0:1:1
-1:-1
0:2:1
-1:-1
0:0:1
-1:-1
0:3:1
-1:-1
0:0:1
-1:-1
0:1:1
-1:-1
0:2:1
-1:-1
0:5:1
-1:-1
0:3:1
-1:-1
0:0:1
-1:-1
0:1:1
-1:-1
0:3:1
-1:-1
0:2:1
-1:-1
0:2:1
-1:1
0:3:1
-1:-1
0:0:1
-1:-1
0:0:1
-1:-1
0:3:1
-1:-1
0:0:1
-1:-1
0:1:1
-1:-1
0:0:1
-1:-1
0:1:1
-1:-1
0:1:1
-1:-1
0:2:1
-1:1
0:0:1
-1:-1
0:2:1
-1:-1
0:0:1
-1:-1
0:2:1
-1:-1
0:3:1
-1:-1
7:12:1
1:-1
1:5:1
-1:-1
0:3:1
-1:-1
0:0:1
-1:-1
0:1:1
-1:-1
0:2:1
-1:-1
0:0:1
-1:-1
0:2:1
-1:-1
0:0:1
-1:-1
0:0:1
-1:-1
0:2:1
-1:-1
0:1:1
-1:-1
0:12:1
-1:-1
0:2:1
-1:-1
0:3:1
-1:-1
0:1:1
-1:1
0:0:1
-1:-1
2:5:1
0:-1
0:5:1
-1:-1
0:7:1
-1:-1
0:1:1
-1:1
0:7:1
-1:-1
0:4:1
-1:-1
0:0:1
-1:-1
0:5:1
-1:-1
0:1:1
-1:-1
0:3:1
-1:-1
0:3:1
-1:-1
0:10:1
-1:-1
0:2:1
-1:1
0:1:1
-1:-1
0:0:1
-1:-1
0:1:1
-1:-1
0:9:1
-1:1
0:7:1
-1:1
2:3:1
0:-1
0:1:1
-1:-1
0:7:1
-1:-1
0:8:1
-1:-1
0:8:1
-1:-1
1:1:1
-1:-1
0:4:1
-1:-1
0:2:1
-1:-1
0:7:1
-1:-1
0:8:1
-1:-1
0:1:1
-1:-1
0:0:1
-1:-1
0:1:1
-1:-1
0:8:1
-1:1
0:4:1
-1:1
0:0:1
-1:-1
0:1:1
-1:-1
0:6:1
-1:1
0:9:1
-1:1
0:3:1
-1:-1
0:4:1
-1:-1
0:1:1
-1:1
0:3:1
-1:-1
0:0:1
-1:-1
1:0:1
-1:-1
0:3:1
-1:-1
2:13:1
0:1
0:1:2
-1:-1
0:10:1
-1:1
0:3:1
-1:1
2:1:1
0:-1
0:3:1
-1:1
1:0:1
-1:-1
0:0:1
-1:-1
0:4:1
-1:-1
0:0:1
-1:-1
0:1:1
-1:-1
0:2:1
-1:-1
0:0:1
-1:-1
0:0:1
-1:-1
1:1:1
-1:-1
0:2:1
-1:-1
0:4:1
-1:1
0:6:1
-1:-1
0:2:1
-1:-1
0:2:1
-1:-1
0:1:1
-1:-1
0:7:1
-1:-1
0:6:1
-1:1
0:1:1
-1:-1
0:1:1
-1:-1
1:6:1
-1:1
0:3:1
-1:-1
0:0:1
-1:-1
0:1:1
-1:-1
0:1:1
-1:-1
0:6:1
-1:-1
0:0:1
-1:-1
0:1:1
-1:-1
0:0:1
-1:-1
0:3:1
-1:-1
0:5:1
-1:1
0:4:1
-1:-1
0:0:1
-1:-1
0:0:1
-1:-1
0:10:1
-1:-1
0:4:1
-1:-1
0:1:1
-1:-1
0:0:1
-1:-1
0:3:1
-1:-1
0:3:1
-1:-1
3:6:1
0:-1
0:4:1
-1:1
0:7:1
-1:1
0:13:1
-1:1
0:9:1
-1:1
0:9:1
-1:-1
0:12:1
-1:1
0:11:1
-1:1
0:10:1
-1:1
0:3:1
-1:1
0:5:1
-1:-1
2:5:1
0:-1
0:8:1
-1:-1
0:3:1
-1:-1
0:5:1
-1:-1
0:1:1
-1:-1
0:0:1
-1:-1
0:0:1
-1:-1
0:0:1
-1:-1
2:4:1
0:-1
0:8:1
-1:1
3:6:1
0:1
0:0:2
-1:-1
1:0:1
-1:-1
0:7:1
-1:-1
0:3:1
-1:-1
0:0:1
-1:-1
0:3:1
-1:-1
0:5:1
-1:-1
0:9:1
-1:-1
0:1:1
-1:-1
0:3:1
-1:-1
0:5:1
-1:-1
0:2:1
-1:-1
1:2:1
-1:-1
1:1:1
-1:-1
0:2:1
-1:-1
0:4:1
-1:-1
0:0:1
-1:-1
4:0:1
1:-1
0:6:1
-1:-1
0:4:1
-1:-1
0:2:1
-1:-1
0:4:1
-1:-1
0:4:1
-1:-1
0:0:1
-1:-1
0:1:1
-1:-1
0:9:1
-1:-1
0:2:1
-1:1
2:8:1
0:1
0:9:2
-1:-1
0:10:1
-1:1
0:7:1
-1:1
0:6:1
-1:1
2:6:1
0:-1
0:2:1
-1:-1
0:6:1
-1:1
0:8:1
-1:-1
0:3:1
-1:-1
1:0:1
-1:-1
0:1:1
-1:-1
0:6:1
-1:-1
0:1:1
-1:-1
0:4:1
-1:-1
0:5:1
-1:1
0:5:1
-1:-1
4:5:1
1:1
0:11:2
-1:0
2:1:1
0:-1
0:1:1
-1:-1
0:0:1
-1:-1
0:0:1
-1:-1
5:6:1
1:-1
2:4:1
0:-1
0:4:1
-1:1
0:5:1
-1:1
0:4:1
-1:-1
0:1:1
-1:-1
0:1:1
-1:-1
0:3:1
-1:1
0:1:1
-1:-1
0:0:1
-1:-1
0:2:1
-1:-1
1:3:1
-1:1
0:3:1
-1:-1
0:2:1
-1:-1
0:4:1
-1:-1
0:3:1
-1:-1
0:5:1
-1:-1
0:1:1
-1:1
0:2:1
-1:-1
0:2:1
-1:-1
0:2:1
-1:-1
0:4:1
-1:-1
0:0:1
-1:-1
0:5:1
-1:-1
0:4:1
-1:-1
0:1:1
-1:-1
0:1:1
-1:-1
0:1:1
-1:-1
0:4:1
-1:-1
0:4:1
-1:-1
0:1:1
-1:-1
0:3:1
-1:-1
0:1:1
-1:-1
0:5:1
-1:1
0:1:1
-1:-1
0:0:1
-1:-1
0:0:1
-1:-1
0:2:1
-1:-1
0:9:1
-1:1
2:5:1
0:1
0:3:2
-1:-1
0:2:1
-1:-1
1:1:1
-1:1
0:1:1
-1:-1
0:2:1
-1:-1
0:1:1
-1:-1
0:1:1
-1:-1
2:1:1
0:-1
4:4:1
1:1
5:1:2
1:0
0:1:3
-1:-1
0:3:2
-1:-1
0:3:1
-1:1
0:0:1
-1:-1
2:0:1
0:-1
0:2:1
-1:-1
0:3:1
-1:-1
0:4:1
-1:1
0:0:1
-1:-1
0:2:1
-1:-1
0:1:1
-1:-1
0:5:1
-1:-1
0:5:1
-1:1
0:2:1
-1:-1
0:3:1
-1:1
0:1:1
-1:-1
0:4:1
-1:-1
0:1:1
-1:-1
0:0:1
-1:-1
0:3:1
-1:-1
0:2:1
-1:-1
1:6:1
-1:-1
0:5:1
-1:-1
2:6:1
0:1
0:0:2
-1:-1
0:1:1
-1:-1
0:4:1
-1:-1
0:1:1
-1:-1
0:1:1
-1:-1
0:1:1
-1:-1
0:5:1
-1:-1
0:3:1
-1:-1
0:2:1
-1:-1
0:1:1
-1:1
0:1:1
-1:-1
0:1:1
-1:1
2:1:1
0:-1
0:3:1
-1:1
0:3:1
-1:1
0:1:1
-1:-1
0:2:1
-1:-1
0:5:1
-1:1
0:3:1
-1:-1
0:0:1
-1:-1
0:8:1
-1:-1
0:1:1
-1:1
0:1:1
-1:-1
2:3:1
0:1
0:2:2
-1:-1
2:7:1
0:1
0:2:2
-1:0
0:2:1
-1:1
0:2:1
-1:1
0:2:1
-1:-1
0:0:1
-1:-1
0:5:1
-1:-1
0:1:1
-1:-1
0:1:1
-1:-1
0:0:1
-1:-1
0:5:1
-1:-1
0:0:1
-1:-1
0:1:1
-1:-1
0:1:1
-1:-1
0:4:1
-1:-1
0:0:1
-1:-1
10:5:1
2:-1
0:14:1
-1:1
0:2:1
-1:1
2:3:1
0:-1
0:5:1
-1:-1
0:8:1
-1:1
0:3:1
-1:-1
0:5:1
-1:1
0:4:1
-1:-1
0:0:1
-1:-1
1:2:1
-1:-1
0:1:1
-1:-1
0:2:1
-1:-1
2:2:1
0:-1
0:1:1
-1:-1
0:2:1
-1:-1
0:1:1
-1:-1
0:2:1
-1:-1
0:0:1
-1:-1
0:0:1
-1:-1
0:0:1
-1:-1
2:2:1
0:-1
0:1:1
-1:-1
0:1:1
-1:-1
0:0:1
-1:-1
0:5:1
-1:-1
0:3:1
-1:-1
0:1:1
-1:-1
1:1:1
-1:1
0:8:1
-1:-1
0:4:1
-1:-1
0:3:1
-1:1
0:6:1
-1:-1
0:2:1
-1:-1
0:3:1
-1:-1
0:1:1
-1:-1
0:0:1
-1:-1
0:2:1
-1:-1
0:6:1
-1:-1
0:2:1
-1:-1
0:3:1
-1:1
0:2:1
-1:-1
0:6:1
-1:-1
2:1:1
0:-1
4:5:1
1:-1
3:2:1
0:-1
0:0:1
-1:-1
0:4:1
-1:-1
0:2:1
-1:-1
0:2:1
-1:-1
0:0:1
-1:-1
0:0:1
-1:-1
0:2:1
-1:-1
0:2:1
-1:-1
1:2:1
-1:-1
0:1:1
-1:-1
0:4:1
-1:-1
0:6:1
-1:1
0:3:1
-1:1
0:2:1
-1:-1
2:2:1
0:-1
0:2:1
-1:-1
0:2:1
-1:-1
1:1:1
-1:-1
2:1:1
0:-1
0:4:1
-1:-1
0:9:1
-1:1
0:4:1
-1:-1
0:0:1
-1:-1
0:2:1
-1:-1
1:3:1
-1:-1
1:3:1
-1:-1
1:2:1
-1:-1
0:1:1
-1:-1
0:3:1
-1:-1
2:2:1
0:1
0:0:2
-1:-1
0:4:1
-1:-1
0:1:1
-1:-1
0:4:1
-1:-1
0:5:1
-1:-1
0:1:1
-1:-1
0:0:1
-1:-1
0:0:1
-1:-1
0:1:1
-1:-1
0:1:1
-1:-1
0:1:1
-1:-1
0:8:1
-1:-1
0:4:1
-1:1
0:2:1
-1:-1
0:1:1
-1:-1
0:2:1
-1:-1
0:9:1
-1:-1
0:4:1
-1:-1
0:3:1
-1:1
0:2:1
-1:-1
0:1:1
-1:-1
0:1:1
-1:-1
0:1:1
-1:-1
0:0:1
-1:-1
0:0:1
-1:-1
2:0:1
0:-1
0:1:1
-1:-1
2:2:1
0:-1
4:2:1
1:1
5:0:2
1:-1
0:2:2
-1:-1
0:3:1
-1:1
0:16:1
-1:1
0:3:1
-1:-1
0:7:1
-1:-1
0:1:1
-1:1
0:3:1
-1:-1
0:5:1
-1:-1
0:1:1
-1:-1
0:1:1
-1:-1
0:1:1
-1:-1
2:3:1
0:1
0:3:2
-1:-1
0:3:1
-1:-1
0:5:1
-1:1
0:1:1
-1:-1
0:2:1
-1:1
0:2:1
-1:-1
0:1:1
-1:-1
0:0:1
-1:-1
0:1:1
-1:-1
0:0:1
-1:-1
0:0:1
-1:-1
0:2:1
-1:-1
0:6:1
-1:-1
0:1:1
-1:-1
0:4:1
-1:-1
1:4:1
-1:1
1:3:1
-1:-1
0:3:1
-1:-1
1:3:1
-1:-1
0:7:1
-1:-1
0:4:1
-1:-1
0:1:1
-1:-1
0:1:1
-1:-1
0:4:1
-1:-1
0:2:1
-1:1
0:1:1
-1:-1
0:7:1
-1:-1
2:3:1
0:-1
0:5:1
-1:-1
1:4:1
-1:-1
0:2:1
-1:-1
0:0:1
-1:-1
0:4:1
-1:-1
0:3:1
-1:-1
0:1:1
-1:1
0:0:1
-1:-1
0:0:1
-1:-1
0:0:1
-1:-1
0:4:1
-1:-1
0:2:1
-1:1
0:7:1
-1:1
0:0:1
-1:-1
0:0:1
-1:-1
0:4:1
-1:-1
0:4:1
-1:-1
1:6:1
-1:-1
0:2:1
-1:-1
0:4:1
-1:-1
0:2:1
-1:-1
0:5:1
-1:-1
0:8:1
-1:1
0:0:1
-1:-1
0:2:1
-1:-1
0:2:1
-1:-1
0:3:1
-1:-1
0:11:1
-1:1
0:3:1
-1:1
0:2:1
-1:-1
0:3:1
-1:-1
0:2:1
-1:-1
0:4:1
-1:-1
0:5:1
-1:-1
0:6:1
-1:-1
0:4:1
-1:-1
5:3:1
1:-1
9:4:1
2:-1
1:1:1
-1:-1
9:2:1
2:-1
0:1:1
-1:-1
8:3:1
2:1
0:1:3
-1:-1
1:1:2
-1:0
1:1:1
-1:-1
0:1:1
-1:-1
0:2:1
-1:1
0:2:1
-1:-1
0:2:1
-1:1
0:1:1
-1:-1
0:5:1
-1:-1
0:6:1
-1:-1
0:0:1
-1:-1
0:1:1
-1:-1
0:4:1
-1:-1
1:6:1
-1:-1
0:2:1
-1:-1
0:2:1
-1:-1
0:1:1
-1:-1
0:4:1
-1:-1
0:0:1
-1:-1
0:0:1
-1:-1
0:1:1
-1:-1
0:6:1
-1:1
0:2:1
-1:-1
0:0:1
-1:-1
0:0:1
-1:-1
0:1:1
-1:-1
0:5:1
-1:1
0:2:1
-1:-1
0:1:1
-1:-1
2:1:1
0:-1
0:1:1
-1:1
0:2:1
-1:-1
0:3:1
-1:-1
1:4:1
-1:-1
0:0:1
-1:-1
0:2:1
-1:-1
2:1:1
0:-1
0:0:1
-1:-1
4:2:1
1:-1
0:0:1
-1:-1
2:0:1
0:-1
0:1:1
-1:-1
0:7:1
-1:1
0:2:1
-1:1
0:3:1
-1:-1
0:1:1
-1:-1
0:1:1
-1:-1
0:2:1
-1:-1
0:2:1
-1:-1
0:3:1
-1:-1
1:1:1
-1:1
2:1:1
0:-1
0:2:1
-1:-1
0:4:1
-1:-1
2:0:1
0:-1
0:0:1
-1:-1
0:1:1
-1:-1
0:2:1
-1:1
2:6:1
0:1
4:4:2
1:-1
0:1:2
-1:-1
0:3:1
-1:-1
0:7:1
-1:1
0:0:1
-1:-1
0:0:1
-1:-1
0:1:1
-1:-1
0:4:1
-1:1
0:0:1
-1:-1
0:6:1
-1:1
0:9:1
-1:-1
0:6:1
-1:1
0:12:1
-1:1
0:11:1
-1:1
0:6:1
-1:-1
0:9:1
-1:1
0:2:1
-1:-1
0:4:1
-1:-1
0:5:1
-1:1
0:3:1
-1:1
0:5:1
-1:-1
0:1:1
-1:-1
0:9:1
-1:1
0:12:1
-1:1
0:5:1
-1:1
0:2:1
-1:-1
0:11:1
-1:-1
0:4:1
-1:1
8:7:1
2:-1
0:24:1
-1:1
4:1:1
1:-1
0:8:1
-1:-1
0:3:1
-1:1
0:2:1
-1:1
0:3:1
-1:-1
0:4:1
-1:-1
0:13:1
-1:-1
5:9:1
1:-1
0:7:1
-1:1
4:1:1
1:-1
0:8:1
-1:-1
0:7:1
-1:-1
0:23:1
-1:-1
0:5:1
-1:-1
0:5:1
-1:-1
0:9:1
-1:-1
0:5:1
-1:-1
0:6:1
-1:1
0:6:1
-1:1
0:4:1
-1:1
0:3:1
-1:1
0:2:1
-1:-1
0:0:1
-1:-1
0:6:1
-1:-1
0:1:1
-1:-1
0:3:1
-1:-1
0:5:1
-1:-1
0:4:1
-1:-1
0:0:1
-1:-1
0:2:1
-1:-1
0:2:1
-1:-1
0:2:1
-1:-1
0:2:1
-1:-1
0:2:1
-1:-1
0:1:1
-1:-1
0:0:1
-1:-1
0:5:1
-1:-1
0:4:1
-1:-1
0:7:1
-1:1
1:0:1
-1:-1
0:3:1
-1:-1
0:0:1
-1:-1
0:3:1
-1:-1
0:4:1
-1:-1
0:2:1
-1:-1
0:5:1
-1:1
0:2:1
-1:-1
1:6:1
-1:1
0:10:1
-1:-1
0:7:1
-1:1
0:2:1
-1:1
1:6:1
-1:-1
0:5:1
-1:-1
0:19:1
-1:-1
0:1:1
-1:-1
0:2:1
-1:-1
0:1:1
-1:-1
0:1:1
-1:-1
0:0:1
-1:-1
0:0:1
-1:-1
0:2:1
-1:-1
0:0:1
-1:-1
1:0:1
-1:-1
0:3:1
-1:-1
0:2:1
-1:1
0:0:1
-1:-1
0:3:1
-1:-1
0:5:1
-1:-1
0:7:1
-1:1
0:7:1
-1:1
0:4:1
-1:-1
0:3:1
-1:-1
0:6:1
-1:1
0:8:1
-1:-1
0:1:1
-1:-1
0:1:1
-1:-1
2:2:1
0:-1
0:1:1
-1:-1
0:6:1
-1:1
0:7:1
-1:1
0:1:1
-1:-1
0:2:1
-1:-1
0:6:1
-1:1
0:15:1
-1:1
0:9:1
-1:1
0:9:1
-1:-1
0:7:1
-1:-1
0:1:1
-1:-1
0:1:1
-1:-1
0:5:1
-1:1
0:0:1
-1:-1
0:6:1
-1:-1
0:4:1
-1:1
0:4:1
-1:-1
0:5:1
-1:-1
0:5:1
-1:1
0:3:1
-1:1
0:6:1
-1:1
0:4:1
-1:1
0:5:1
-1:1
0:8:1
-1:-1
0:8:1
-1:1
0:8:1
-1:1
0:2:1
-1:-1
0:0:1
-1:-1
0:3:1
-1:-1
1:11:1
-1:-1
6:3:1
1:-1
0:4:1
-1:-1
0:5:1
-1:-1
0:4:1
-1:1
1:2:1
-1:1
0:2:1
-1:-1
0:1:1
-1:-1
0:1:1
-1:1
0:7:1
-1:-1
0:5:1
-1:1
0:4:1
-1:-1
0:3:1
-1:-1
0:1:1
-1:-1
0:3:1
-1:-1
0:5:1
-1:1
0:4:1
-1:1
0:7:1
-1:1
0:4:1
-1:1
0:8:1
-1:-1
0:1:1
-1:-1
0:5:1
-1:-1
0:9:1
-1:1
0:1:1
-1:-1
1:0:1
-1:-1
2:1:1
0:-1
0:0:1
-1:-1
0:1:1
-1:-1
0:1:1
-1:-1
0:4:1
-1:1
0:13:1
-1:1
2:10:1
0:1
0:11:2
-1:-1
0:1:1
-1:-1
0:6:1
-1:-1
0:3:1
-1:1
3:2:1
0:1
0:0:2
-1:-1
0:0:1
-1:-1
0:2:1
-1:-1
0:14:1
-1:-1
0:3:1
-1:1
0:5:1
-1:-1
2:4:1
0:1
0:16:2
-1:-1
0:4:1
-1:1
0:4:1
-1:1
0:5:1
-1:1
0:3:1
-1:-1
0:2:1
-1:-1
0:0:1
-1:-1
0:0:1
-1:-1
0:0:1
-1:-1
0:5:1
-1:-1
0:4:1
-1:1
0:4:1
-1:-1
0:1:1
-1:-1
0:7:1
-1:1
0:7:1
-1:-1
0:10:1
-1:1
0:8:1
-1:1
0:14:1
-1:-1
0:9:1
-1:-1
0:7:1
-1:1
0:2:1
-1:1
0:1:1
-1:-1
0:9:1
-1:-1
0:8:1
-1:1
0:7:1
-1:-1
0:2:1
-1:1
0:6:1
-1:1
1:1:1
-1:-1
0:0:1
-1:-1
0:1:1
-1:-1
0:7:1
-1:1
0:5:1
-1:1
0:6:1
-1:1
0:8:1
-1:1
1:15:1
-1:-1
0:19:1
-1:-1
0:18:1
-1:1
0:17:1
-1:1
0:2:1
-1:-1
0:9:1
-1:1
0:3:1
-1:1
0:10:1
-1:1
0:3:1
-1:-1
0:3:1
-1:-1
0:7:1
-1:1
0:1:1
-1:-1
1:4:1
-1:1
0:7:1
-1:-1
0:7:1
-1:-1
0:6:1
-1:-1
0:0:1
-1:-1
0:3:1
-1:-1
0:6:1
-1:-1
0:1:1
-1:-1
0:1:1
-1:-1
0:0:1
-1:-1
0:2:1
-1:-1
0:4:1
-1:-1
0:5:1
-1:-1
1:3:1
-1:-1
0:15:1
-1:-1
0:3:1
-1:-1
0:3:1
-1:1
0:4:1
-1:1
0:1:1
-1:-1
0:1:1
-1:-1
0:2:1
-1:-1
0:4:1
-1:-1
3:5:1
0:1
0:3:2
-1:-1
0:4:1
-1:1
0:4:1
-1:1
1:1:1
-1:-1
0:4:1
-1:-1
1:2:1
-1:1
3:2:1
0:-1
4:1:1
1:-1
0:3:1
-1:-1
0:6:1
-1:-1
0:13:1
-1:1
0:12:1
-1:1
0:13:1
-1:1
0:16:1
-1:1
0:21:1
-1:1
0:3:1
-1:-1
0:2:1
-1:-1
0:1:1
-1:1
0:0:1
-1:-1
0:3:1
-1:-1
0:6:1
-1:-1
0:6:1
-1:-1
0:4:1
-1:1
0:13:1
-1:1
1:4:1
-1:1
0:7:1
-1:-1
0:4:1
-1:-1
0:2:1
-1:-1
0:5:1
-1:-1
0:0:1
-1:-1
0:3:1
-1:-1
0:5:1
-1:-1
0:1:1
-1:-1
0:20:1
-1:1
0:2:1
-1:-1
1:3:1
-1:1
0:5:1
-1:-1
0:6:1
-1:1
0:10:1
-1:1
4:41:1
1:1
5:9:2
1:-1
0:8:2
-1:-1
0:45:1
-1:1
0:3:1
-1:1
0:3:1
-1:1
0:8:1
-1:1
3:11:1
0:1
0:3:2
-1:-1
0:3:1
-1:-1
0:3:1
-1:1
0:1:1
-1:-1
0:3:1
-1:-1
0:1:1
-1:-1
0:1:1
-1:-1
0:0:1
-1:-1
0:2:1
-1:-1
0:2:1
-1:1
0:2:1
-1:-1
0:3:1
-1:-1
1:1:1
-1:-1
0:1:1
-1:-1
0:19:1
-1:1
0:20:1
-1:1
0:7:1
-1:1
0:6:1
-1:-1
0:3:1
-1:-1
0:17:1
-1:1
0:6:1
-1:-1
2:4:1
0:1
0:0:2
-1:-1
0:1:1
-1:-1
0:2:1
-1:-1
0:0:1
-1:-1
0:4:1
-1:-1
2:4:1
0:-1
0:12:1
-1:-1
0:6:1
-1:1
0:4:1
-1:1
0:12:1
-1:1
2:6:1
0:1
0:7:2
-1:-1
0:3:1
-1:-1
0:4:1
-1:-1
0:2:1
-1:1
0:1:1
-1:-1
0:5:1
-1:-1
0:1:1
-1:-1
0:4:1
-1:1
0:0:1
-1:-1
0:1:1
-1:-1
0:2:1
-1:-1
0:2:1
-1:-1
0:0:1
-1:-1
0:0:1
-1:-1
0:1:1
-1:-1
0:1:1
-1:1
0:2:1
-1:-1
0:8:1
-1:1
0:8:1
-1:1
0:10:1
-1:-1
0:10:1
-1:-1
0:5:1
-1:-1
0:2:1
-1:-1
0:4:1
-1:-1
0:3:1
-1:1
0:8:1
-1:1
0:4:1
-1:-1
0:6:1
-1:1
1:3:1
-1:-1
0:4:1
-1:-1
0:2:1
-1:1
0:2:1
-1:-1
0:1:1
-1:-1
0:1:1
-1:-1
0:7:1
-1:1
0:0:1
-1:-1
0:0:1
-1:-1
0:2:1
-1:-1
0:6:1
-1:-1
0:1:1
-1:-1
0:4:1
-1:-1
0:1:1
-1:-1
0:0:1
-1:-1
0:2:1
-1:-1
0:2:1
-1:-1
0:2:1
-1:-1
1:3:1
-1:-1
0:3:1
-1:-1
0:6:1
-1:-1
0:0:1
-1:-1
0:3:1
-1:-1
0:5:1
-1:1
0:11:1
-1:-1
0:2:1
-1:-1
0:1:1
-1:-1
0:1:1
-1:1
0:1:1
-1:-1
0:10:1
-1:-1
0:1:1
-1:-1
0:0:1
-1:-1
0:6:1
-1:-1
0:1:1
-1:1
0:1:1
-1:-1
0:7:1
-1:1
1:4:1
-1:1
2:8:1
0:-1
0:2:1
-1:-1
0:2:1
-1:-1
0:1:1
-1:1
0:5:1
-1:-1
0:6:1
-1:1
0:2:1
-1:-1
0:0:1
-1:-1
0:1:1
-1:-1
2:7:1
0:-1
0:10:1
-1:-1
2:9:1
0:-1
0:4:1
-1:1
0:1:1
-1:-1
2:3:1
0:1
0:6:2
-1:-1
0:0:1
-1:-1
0:0:1
-1:-1
0:3:1
-1:-1
0:5:1
-1:1
0:0:1
-1:-1
1:0:1
-1:-1
0:2:1
-1:-1
2:1:1
0:-1
1:2:1
-1:-1
1:2:1
-1:-1
1:7:1
-1:1
0:2:1
-1:-1
4:0:1
1:-1
4:0:1
1:-1
3:1:1
0:-1
4:3:1
1:-1
8:4:1
2:-1
5:6:1
1:-1
2:4:1
0:-1
3:8:1
0:-1
7:4:1
1:-1
7:6:1
1:-1
1:3:1
-1:-1
3:3:1
0:1
5:2:2
1:1
6:1:3
1:0
8:2:4
2:0
10:2:5
2:0
11:2:6
2:0
13:2:7
2:0
14:2:8
2:0
15:2:9
2:-1
15:1:9
2:-1
0:1:9
-1:-1
2:1:8
0:-1
4:2:8
1:0
6:2:9
1:-1
7:1:9
1:-1
9:2:9
2:-1
11:2:9
2:-1
13:2:9
2:-1
15:2:9
2:-1
15:2:9
2:-1
15:2:9
2:-1
15:1:9
2:-1
15:2:9
2:-1
15:2:9
2:-1
15:2:9
2:-1
15:2:9
2:-1
15:1:9
2:-1
15:2:9
2:-1
15:2:9
2:-1
15:2:9
2:-1
15:2:9
2:-1
15:2:9
2:-1
15:2:9
2:-1
15:1:9
2:-1
15:2:9
2:-1
15:2:9
2:-1
15:2:9
2:-1
15:2:9
2:-1
15:1:9
2:-1
15:2:9
2:-1
15:2:9
2:-1
15:2:9
2:-1
15:2:9
2:-1
15:2:9
2:-1
15:2:9
2:-1
0:0:9
-1:-1
3:2:8
0:0
4:1:8
1:-1
6:2:8
1:0
8:2:9
2:-1
9:1:9
2:-1
11:2:9
2:-1
13:2:9
2:-1
15:2:9
2:-1
15:2:9
2:-1
15:2:9
2:-1
15:2:9
2:-1
15:1:9
2:-1
15:2:9
2:-1
15:2:9
2:-1
15:2:9
2:-1
15:2:9
2:-1
15:1:9
2:-1
15:2:9
2:-1
15:2:9
2:-1
15:2:9
2:-1
0:2:9
-1:-1
0:2:8
-1:-1
0:2:7
-1:-1
0:1:6
-1:-1
9:8:5
2:1
15:9:7
2:1
15:9:9
2:1
15:9:11
2:1
15:9:12
2:0
15:9:12
2:0
15:9:12
2:0
6:5:12
1:-1
15:9:12
2:0
15:9:12
2:0
15:9:12
2:0
15:9:12
2:0
0:9:12
-1:0
13:10:11
2:-1
1:4:11
-1:0
4:4:10
1:-1
1:4:10
-1:-1
0:0:9
-1:-1
0:3:8
-1:-1
0:5:7
-1:-1
0:0:6
-1:-1
0:0:5
-1:-1
0:0:4
-1:-1
0:1:3
-1:-1
0:27:2
-1:0
0:12:1
-1:1
0:3:1
-1:1
2:5:1
0:-1
0:7:1
-1:-1
0:0:1
-1:-1
0:8:1
-1:-1
0:10:1
-1:-1
0:10:1
-1:-1
0:9:1
-1:1
0:9:1
-1:1
0:6:1
-1:-1
0:3:1
-1:-1
0:3:1
-1:-1
2:0:1
0:-1
0:2:1
-1:-1
2:5:1
0:-1
0:4:1
-1:-1
0:4:1
-1:-1
0:3:1
-1:1
0:1:1
-1:-1
0:1:1
-1:-1
0:6:1
-1:1
0:8:1
-1:-1
1:5:1
-1:-1
2:15:1
0:-1
0:5:1
-1:-1
0:6:1
-1:-1
2:5:1
0:1
0:0:2
-1:-1
0:3:1
-1:-1
0:4:1
-1:1
0:1:1
-1:-1
0:7:1
-1:-1
0:1:1
-1:-1
0:8:1
-1:1
0:13:1
-1:1
0:27:1
-1:1
0:9:1
-1:-1
0:3:1
-1:-1
0:7:1
-1:1
1:5:1
-1:1
0:8:1
-1:-1
0:4:1
-1:-1
0:6:1
-1:-1
2:1:1
0:-1
0:1:1
-1:-1
0:8:1
-1:1
0:8:1
-1:1
2:5:1
0:-1
0:1:1
-1:-1
0:11:1
-1:1
0:11:1
-1:1
0:7:1
-1:1
0:7:1
-1:1
2:3:1
0:1
0:4:2
-1:-1
0:5:1
-1:-1
0:2:1
-1:-1
0:5:1
-1:-1
0:6:1
-1:1
0:2:1
-1:-1
0:2:1
-1:1
0:4:1
-1:-1
0:7:1
-1:-1
0:2:1
-1:1
0:6:1
-1:1
0:6:1
-1:-1
0:10:1
-1:1
0:4:1
-1:-1
0:6:1
-1:1
0:2:1
-1:-1
0:5:1
-1:1
0:3:1
-1:1
0:1:1
-1:-1
0:7:1
-1:-1
0:1:1
-1:-1
0:4:1
-1:-1
0:0:1
-1:-1
0:10:1
-1:-1
0:0:1
-1:-1
0:1:1
-1:-1
0:2:1
-1:-1
0:2:1
-1:-1
0:1:1
-1:1
0:3:1
-1:-1
0:2:1
-1:-1
0:4:1
-1:-1
0:3:1
-1:-1
2:2:1
0:1
0:1:2
-1:-1
0:1:1
-1:-1
2:3:1
0:1
0:4:2
-1:-1
0:3:1
-1:-1
0:1:1
-1:-1
0:0:1
-1:-1
0:1:1
-1:-1
0:3:1
-1:-1
0:0:1
-1:-1
0:2:1
-1:-1
2:0:1
0:-1
0:3:1
-1:-1
0:5:1
-1:-1
0:0:1
-1:-1
0:1:1
-1:-1
0:0:1
-1:-1
0:7:1
-1:-1
0:2:1
-1:1
0:1:1
-1:-1
0:0:1
-1:-1
0:7:1
-1:-1
0:0:1
-1:-1
0:0:1
-1:-1
0:1:1
-1:-1
0:1:1
-1:-1
0:5:1
-1:1
0:0:1
-1:-1
0:0:1
-1:-1
0:1:1
-1:-1
0:3:1
-1:1
0:2:1
-1:-1
0:0:1
-1:-1
0:0:1
-1:-1
0:0:1
-1:-1
0:0:1
-1:-1
0:18:1
-1:-1
0:1:1
-1:1
0:1:1
-1:-1
0:11:1
-1:-1
0:0:1
-1:-1
0:2:1
-1:-1
1:9:1
-1:1
0:8:1
-1:-1
0:0:1
-1:-1
0:2:1
-1:-1
0:12:1
-1:-1
0:5:1
-1:-1
0:10:1
-1:-1
0:3:1
-1:1
0:0:1
-1:-1
0:2:1
-1:-1
2:6:1
0:-1
0:5:1
-1:-1
0:0:1
-1:-1
0:0:1
-1:-1
0:0:1
-1:-1
0:0:1
-1:-1
0:10:1
-1:-1
0:11:1
-1:1
0:3:1
-1:-1
0:1:1
-1:-1
0:2:1
-1:-1
0:0:1
-1:-1
2:5:1
0:-1
0:1:1
-1:-1
0:3:1
-1:-1
0:4:1
-1:-1
0:1:1
-1:-1
0:3:1
-1:1
0:4:1
-1:1
2:1:1
0:-1
0:17:1
-1:-1
0:2:1
-1:-1
0:1:1
-1:-1
0:16:1
-1:-1
0:7:1
-1:-1
0:1:1
-1:-1
0:2:1
-1:-1
0:1:1
-1:-1
0:5:1
-1:1
0:6:1
-1:1
0:2:1
-1:-1
0:5:1
-1:-1
0:5:1
-1:1
0:3:1
-1:1
0:1:1
-1:-1
0:4:1
-1:-1
0:2:1
-1:-1
0:1:1
-1:-1
0:1:1
-1:-1
0:2:1
-1:-1
0:5:1
-1:1
0:2:1
-1:-1
0:3:1
-1:-1
0:15:1
-1:1
0:0:1
-1:-1
0:1:1
-1:-1
0:2:1
-1:-1
1:1:1
-1:-1
0:1:1
-1:-1
2:1:1
0:-1
0:3:1
-1:-1
0:0:1
-1:-1
0:0:1
-1:-1
1:0:1
-1:-1
0:1:1
-1:-1
1:1:1
-1:-1
0:4:1
-1:-1
0:4:1
-1:-1
0:2:1
-1:-1
0:0:1
-1:-1
0:1:1
-1:-1
0:3:1
-1:1
0:6:1
-1:-1
0:2:1
-1:-1
0:1:1
-1:1
0:4:1
-1:-1
0:4:1
-1:1
0:0:1
-1:-1
2:3:1
0:-1
0:2:1
-1:-1
2:3:1
0:1
0:4:2
-1:-1
0:2:1
-1:-1
0:1:1
-1:-1
0:5:1
-1:-1
0:0:1
-1:-1
0:0:1
-1:-1
0:0:1
-1:-1
0:4:1
-1:-1
0:1:1
-1:-1
0:3:1
-1:-1
0:6:1
-1:-1
0:4:1
-1:-1
0:1:1
-1:-1
0:2:1
-1:-1
0:2:1
-1:1
0:1:1
-1:-1
0:3:1
-1:-1
0:0:1
-1:-1
1:1:1
-1:-1
0:1:1
-1:-1
0:1:1
-1:-1
0:5:1
-1:-1
0:0:1
-1:-1
0:1:1
-1:-1
1:11:1
-1:-1
2:14:1
0:-1
0:1:1
-1:-1
2:2:1
0:-1
0:2:1
-1:-1
0:0:1
-1:-1
0:0:1
-1:-1
0:14:1
-1:-1
2:7:1
0:-1
0:1:1
-1:1
0:2:1
-1:-1
0:6:1
-1:1
0:5:1
-1:-1
0:2:1
-1:-1
0:8:1
-1:-1
0:3:1
-1:1
0:9:1
-1:1
0:1:1
-1:1
0:3:1
-1:-1
0:2:1
-1:-1
0:1:1
-1:-1
0:7:1
-1:-1
0:2:1
-1:-1
0:15:1
-1:1
0:5:1
-1:-1
0:3:1
-1:1
0:0:1
-1:-1
0:0:1
-1:-1
0:3:1
-1:-1
0:1:1
-1:-1
0:2:1
-1:1
0:0:1
-1:-1
0:4:1
-1:-1
0:5:1
-1:-1
0:1:1
-1:-1
0:0:1
-1:-1
0:1:1
-1:-1
0:1:1
-1:-1
0:3:1
-1:-1
0:1:1
-1:-1
0:3:1
-1:-1
2:1:1
0:-1
0:1:1
-1:-1
0:4:1
-1:-1
0:2:1
-1:-1
0:2:1
-1:-1
0:4:1
-1:-1
0:1:1
-1:-1
0:5:1
-1:-1
0:4:1
-1:-1
0:1:1
-1:-1
0:5:1
-1:-1
0:3:1
-1:-1
1:9:1
-1:1
0:3:1
-1:-1
0:16:1
-1:-1
4:16:1
1:1
0:5:2
-1:0
1:5:1
-1:-1
1:1:1
-1:-1
0:2:1
-1:1
0:6:1
-1:1
0:10:1
-1:1
0:9:1
-1:1
0:8:1
-1:-1
0:2:1
-1:-1
0:8:1
-1:1
0:2:1
-1:1
0:7:1
-1:-1
0:14:1
-1:1
0:13:1
-1:1
0:4:1
-1:-1
0:1:1
-1:-1
0:1:1
-1:-1
0:2:1
-1:-1
1:4:1
-1:-1
0:5:1
-1:-1
0:7:1
-1:-1
0:0:1
-1:-1
0:6:1
-1:-1
0:2:1
-1:-1
0:3:1
-1:1
0:5:1
-1:1
0:1:1
-1:-1
0:0:1
-1:-1
1:0:1
-1:-1
0:3:1
-1:-1
0:1:1
-1:-1
0:5:1
-1:-1
2:3:1
0:1
0:5:2
-1:-1
0:2:1
-1:-1
0:0:1
-1:-1
0:0:1
-1:-1
0:4:1
-1:-1
0:3:1
-1:1
0:1:1
-1:-1
0:7:1
-1:-1
0:15:1
-1:-1
0:14:1
-1:1
0:2:1
-1:-1
0:2:1
-1:-1
0:8:1
-1:-1
0:0:1
-1:-1
0:2:1
-1:-1
0:5:1
-1:-1
0:0:1
-1:-1
0:2:1
-1:-1
0:8:1
-1:1
0:0:1
-1:-1
0:15:1
-1:-1
0:5:1
-1:-1
0:6:1
-1:-1
0:12:1
-1:1
0:13:1
-1:1
0:10:1
-1:1
0:7:1
-1:-1
0:8:1
-1:1
0:7:1
-1:1
0:6:1
-1:1
0:2:1
-1:1
1:15:1
-1:1
4:7:1
1:-1
0:5:1
-1:-1
0:4:1
-1:1
1:12:1
-1:-1
0:4:1
-1:-1
0:5:1
-1:1
0:10:1
-1:1
0:1:1
-1:-1
0:9:1
-1:-1
2:2:1
0:-1
0:4:1
-1:-1
0:1:1
-1:-1
0:4:1
-1:1
2:5:1
0:-1
0:12:1
-1:-1
3:2:1
0:1
0:5:2
-1:0
0:6:1
-1:-1
0:9:1
-1:1
0:4:1
-1:-1
0:4:1
-1:-1
0:3:1
-1:-1
0:4:1
-1:-1
0:3:1
-1:-1
0:1:1
-1:-1
0:2:1
-1:-1
2:2:1
0:1
2:0:2
0:-1
0:0:2
-1:-1
0:2:1
-1:-1
0:3:1
-1:-1
0:7:1
-1:-1
0:1:1
-1:-1
0:2:1
-1:1
0:3:1
-1:-1
0:3:1
-1:1
0:2:1
-1:-1
0:1:1
-1:-1
0:3:1
-1:1
2:2:1
0:1
0:1:2
-1:-1
0:6:1
-1:-1
0:2:1
-1:-1
0:2:1
-1:1
1:1:1
-1:-1
0:1:1
-1:-1
0:5:1
-1:-1
0:0:1
-1:-1
0:2:1
-1:-1
0:1:1
-1:-1
0:3:1
-1:-1
0:2:1
-1:1
1:13:1
-1:1
0:15:1
-1:-1
0:10:1
-1:-1
0:8:1
-1:1
0:6:1
-1:-1
0:6:1
-1:1
0:12:1
-1:-1
0:0:1
-1:-1
0:3:1
-1:-1
4:10:1
1:-1
0:3:1
-1:1
0:1:1
-1:-1
0:1:1
-1:-1
0:0:1
-1:-1
0:1:1
-1:-1
1:1:1
-1:-1
0:0:1
-1:-1
0:0:1
-1:-1
0:5:1
-1:-1
0:2:1
-1:-1
4:15:1
1:-1
0:2:1
-1:-1
0:5:1
-1:-1
2:7:1
0:1
0:5:2
-1:-1
0:7:1
-1:1
0:6:1
-1:-1
0:5:1
-1:-1
0:4:1
-1:-1
0:3:1
-1:-1
1:2:1
-1:-1
0:0:1
-1:-1
0:4:1
-1:-1
2:2:1
0:-1
0:6:1
-1:1
0:5:1
-1:-1
0:6:1
-1:-1
0:2:1
-1:-1
0:1:1
-1:-1
3:3:1
0:1
0:3:2
-1:-1
0:7:1
-1:1
0:3:1
-1:-1
0:5:1
-1:1
0:1:1
-1:-1
2:1:1
0:-1
0:3:1
-1:-1
0:8:1
-1:1
2:9:1
0:-1
0:7:1
-1:-1
2:7:1
0:1
0:6:2
-1:-1
0:3:1
-1:-1
0:5:1
-1:-1
2:2:1
0:-1
0:0:1
-1:-1
0:2:1
-1:-1
0:3:1
-1:-1
0:1:1
-1:-1
0:1:1
-1:-1
0:1:1
-1:-1
0:2:1
-1:1
0:5:1
-1:1
0:1:1
-1:-1
0:5:1
-1:1
0:4:1
-1:1
0:0:1
-1:-1
0:6:1
-1:-1
0:2:1
-1:-1
0:1:1
-1:-1
0:2:1
-1:1
0:7:1
-1:-1
0:0:1
-1:-1
0:1:1
-1:-1
0:2:1
-1:-1
0:6:1
-1:1
0:1:1
-1:-1
0:4:1
-1:-1
0:3:1
-1:1
0:1:1
-1:-1
0:2:1
-1:-1
0:7:1
-1:-1
0:6:1
-1:-1
0:3:1
-1:-1
0:2:1
-1:-1
0:1:1
-1:-1
0:5:1
-1:-1
2:3:1
0:1
0:3:2
-1:-1
0:2:1
-1:-1
2:4:1
0:1
0:2:2
-1:-1
1:2:1
-1:-1
2:2:1
0:-1
0:3:1
-1:-1
0:1:1
-1:-1
0:3:1
-1:-1
0:17:1
-1:1
2:9:1
0:-1
0:0:1
-1:-1
0:1:1
-1:-1
0:1:1
-1:1
0:3:1
-1:-1
0:1:1
-1:-1
0:5:1
-1:-1
0:1:1
-1:-1
0:3:1
-1:1
0:7:1
-1:1
0:8:1
-1:-1
0:2:1
-1:-1
0:3:1
-1:-1
0:0:1
-1:-1
0:1:1
-1:-1
2:7:1
0:-1
0:2:1
-1:-1
0:7:1
-1:1
2:2:1
0:-1
0:2:1
-1:-1
0:2:1
-1:-1
0:1:1
-1:-1
2:1:1
0:-1
0:1:1
-1:-1
0:1:1
-1:-1
0:2:1
-1:-1
0:2:1
-1:-1
0:4:1
-1:-1
0:1:1
-1:-1
0:2:1
-1:-1
0:3:1
-1:-1
0:1:1
-1:1
0:0:1
-1:-1
0:0:1
-1:-1
0:0:1
-1:-1
0:1:1
-1:-1
0:3:1
-1:-1
0:2:1
-1:-1
0:7:1
-1:-1
0:0:1
-1:-1
0:2:1
-1:-1
0:0:1
-1:-1
2:1:1
0:-1
0:1:1
-1:-1
0:8:1
-1:-1
0:1:1
-1:-1
0:3:1
-1:-1
0:0:1
-1:-1
0:1:1
-1:-1
0:1:1
-1:1
0:2:1
-1:-1
0:5:1
-1:1
0:1:1
-1:1
0:3:1
-1:-1
0:2:1
-1:1
0:5:1
-1:1
0:7:1
-1:-1
0:6:1
-1:1
2:1:1
0:-1
0:2:1
-1:-1
0:4:1
-1:-1
1:4:1
-1:-1
0:3:1
-1:-1
0:1:1
-1:-1
0:0:1
-1:-1
0:1:1
-1:-1
0:10:1
-1:1
0:3:1
-1:-1
0:3:1
-1:-1
0:2:1
-1:-1
0:6:1
-1:-1
0:5:1
-1:1
0:0:1
-1:-1
0:2:1
-1:-1
0:11:1
-1:1
2:13:1
0:-1
0:13:1
-1:-1
0:12:1
-1:1
0:14:1
-1:-1
0:14:1
-1:1
0:17:1
-1:1
2:4:1
0:1
2:5:2
0:-1
1:0:2
-1:-1
0:6:1
-1:-1
0:4:1
-1:1
0:1:1
-1:-1
0:5:1
-1:-1
0:4:1
-1:-1
0:2:1
-1:-1
0:4:1
-1:-1
0:8:1
-1:1
1:19:1
-1:1
0:4:1
-1:-1
0:7:1
-1:1
0:3:1
-1:-1
0:4:1
-1:-1
0:2:1
-1:-1
1:6:1
-1:-1
0:2:1
-1:-1
0:1:1
-1:-1
0:14:1
-1:-1
0:12:1
-1:1
0:12:1
-1:1
0:8:1
-1:1
0:6:1
-1:1
0:10:1
-1:1
0:7:1
-1:1
0:1:1
-1:-1
0:2:1
-1:1
0:1:1
-1:-1
0:9:1
-1:-1
0:13:1
-1:1
0:13:1
-1:1
0:10:1
-1:1
0:7:1
-1:1
0:7:1
-1:1
1:16:1
-1:-1
0:6:1
-1:-1
0:1:1
-1:-1
0:15:1
-1:-1
2:4:1
0:-1
0:3:1
-1:1
2:0:1
0:-1
0:1:1
-1:-1
0:6:1
-1:1
0:0:1
-1:-1
0:6:1
-1:-1
0:3:1
-1:-1
0:1:1
-1:-1
2:1:1
0:-1
0:4:1
-1:-1
0:1:1
-1:-1
0:3:1
-1:1
0:2:1
-1:-1
0:2:1
-1:-1
0:3:1
-1:-1
1:7:1
-1:-1
1:2:1
-1:-1
0:1:1
-1:-1
0:2:1
-1:-1
4:17:1
1:-1
0:5:1
-1:-1
0:3:1
-1:-1
0:2:1
-1:-1
0:9:1
-1:1
0:6:1
-1:1
0:2:1
-1:-1
2:9:1
0:1
0:3:2
-1:0
0:4:1
-1:1
0:12:1
-1:-1
2:3:1
0:-1
0:2:1
-1:-1
0:2:1
-1:-1
0:1:1
-1:-1
0:6:1
-1:-1
0:0:1
-1:-1
0:2:1
-1:-1
0:1:1
-1:1
0:0:1
-1:-1
0:1:1
-1:-1
0:5:1
-1:1
2:4:1
0:1
0:4:2
-1:-1
0:2:1
-1:1
2:2:1
0:1
0:1:2
-1:-1
0:0:1
-1:-1
0:4:1
-1:-1
0:1:1
-1:-1
0:1:1
-1:-1
2:2:1
0:1
0:2:2
-1:0
0:6:1
-1:1
0:5:1
-1:1
1:4:1
-1:-1
0:5:1
-1:-1
0:14:1
-1:1
0:0:1
-1:-1
0:0:1
-1:-1
0:1:1
-1:-1
0:5:1
-1:1
0:0:1
-1:-1
0:1:1
-1:-1
2:1:1
0:-1
0:5:1
-1:-1
0:0:1
-1:-1
0:2:1
-1:-1
0:1:1
-1:-1
0:1:1
-1:-1
0:1:1
-1:-1
0:3:1
-1:-1
2:5:1
0:1
2:1:2
0:-1
0:2:2
-1:-1
0:4:1
-1:-1
0:2:1
-1:-1
0:2:1
-1:-1
0:0:1
-1:-1
2:0:1
0:-1
0:0:1
-1:-1
0:2:1
-1:-1
0:2:1
-1:-1
0:1:1
-1:-1
1:1:1
-1:-1
0:0:1
-1:-1
0:0:1
-1:-1
0:1:1
-1:-1
0:8:1
-1:1
0:7:1
-1:1
0:2:1
-1:-1
0:3:1
-1:-1
0:2:1
-1:-1
1:3:1
-1:-1
3:2:1
0:1
2:1:2
0:-1
4:2:2
1:-1
0:1:2
-1:-1
5:1:1
1:-1
0:0:1
-1:-1
0:3:1
-1:-1
1:5:1
-1:1
0:5:1
-1:1
0:2:1
-1:-1
0:1:1
-1:-1
0:2:1
-1:1
0:1:1
-1:-1
0:9:1
-1:-1
0:1:1
-1:1
0:4:1
-1:-1
0:2:1
-1:1
0:2:1
-1:-1
0:4:1
-1:-1
0:0:1
-1:-1
0:0:1
-1:-1
0:2:1
-1:-1
0:1:1
-1:-1
0:2:1
-1:1
0:4:1
-1:-1
0:0:1
-1:-1
0:1:1
-1:-1
0:7:1
-1:-1
0:1:1
-1:-1
0:0:1
-1:-1
0:1:1
-1:-1
0:1:1
-1:1
0:1:1
-1:-1
2:0:1
0:-1
0:2:1
-1:-1
0:1:1
-1:-1
0:3:1
-1:-1
0:1:1
-1:-1
0:2:1
-1:1
1:1:1
-1:-1
0:2:1
-1:-1
0:4:1
-1:1
0:3:1
-1:-1
0:11:1
-1:-1
0:5:1
-1:-1
0:6:1
-1:-1
0:2:1
-1:-1
0:3:1
-1:-1
0:4:1
-1:-1
0:1:1
-1:-1
0:3:1
-1:1
0:2:1
-1:-1
0:0:1
-1:-1
0:4:1
-1:-1
0:1:1
-1:1
0:1:1
-1:-1
0:1:1
-1:-1
0:4:1
-1:-1
2:1:1
0:-1
0:1:1
-1:-1
0:1:1
-1:-1
2:2:1
0:-1
0:5:1
-1:-1
2:2:1
0:-1
0:2:1
-1:-1
0:1:1
-1:-1
0:3:1
-1:-1
0:2:1
-1:-1
0:3:1
-1:-1
0:2:1
-1:-1
0:1:1
-1:-1
0:7:1
-1:1
0:1:1
-1:-1
0:1:1
-1:-1
0:0:1
-1:-1
0:0:1
-1:-1
0:1:1
-1:-1
1:2:1
-1:-1
0:5:1
-1:-1
0:5:1
-1:-1
0:0:1
-1:-1
0:3:1
-1:-1
0:2:1
-1:1
0:4:1
-1:-1
0:0:1
-1:-1
0:1:1
-1:-1
0:1:1
-1:-1
0:0:1
-1:-1
0:1:1
-1:1
0:1:1
-1:-1
0:2:1
-1:-1
0:7:1
-1:-1
0:2:1
-1:1
1:3:1
-1:-1
0:0:1
-1:-1
0:3:1
-1:-1
0:2:1
-1:-1
0:2:1
-1:1
0:3:1
-1:-1
2:2:1
0:1
0:2:2
-1:-1
0:1:1
-1:1
0:0:1
-1:-1
0:3:1
-1:-1
0:2:1
-1:-1
0:2:1
-1:-1
0:1:1
-1:-1
0:1:1
-1:-1
0:6:1
-1:1
0:0:1
-1:-1
0:1:1
-1:-1
0:5:1
-1:1
0:2:1
-1:-1
0:0:1
-1:-1
0:2:1
-1:-1
0:2:1
-1:-1
3:0:1
0:-1
4:1:1
1:-1
0:1:1
-1:-1
0:12:1
-1:1
0:4:1
-1:1
0:4:1
-1:1
0:5:1
-1:1
0:1:1
-1:-1
0:1:1
-1:1
0:1:1
-1:1
0:3:1
-1:-1
0:1:1
-1:-1
0:2:1
-1:-1
0:5:1
-1:-1
0:7:1
-1:1
0:2:1
-1:1
0:0:1
-1:-1
0:2:1
-1:1
0:5:1
-1:1
0:6:1
-1:-1
0:7:1
-1:1
0:4:1
-1:-1
2:1:1
0:-1
0:1:1
-1:-1
0:2:1
-1:-1
0:2:1
-1:-1
0:1:1
-1:-1
0:4:1
-1:-1
0:1:1
-1:-1
0:0:1
-1:-1
0:2:1
-1:-1
0:1:1
-1:-1
0:3:1
-1:1
0:11:1
-1:1
0:2:1
-1:-1
0:2:1
-1:-1
0:2:1
-1:-1
0:4:1
-1:1
0:2:1
-1:-1
1:1:1
-1:-1
0:1:1
-1:-1
0:0:1
-1:-1
0:8:1
-1:-1
0:0:1
-1:-1
0:3:1
-1:-1
0:1:1
-1:-1
0:6:1
-1:-1
0:2:1
-1:1
2:3:1
0:1
0:0:2
-1:-1
0:2:1
-1:-1
0:1:1
-1:-1
0:3:1
-1:1
0:0:1
-1:-1
0:0:1
-1:-1
0:4:1
-1:-1
0:3:1
-1:-1
0:4:1
-1:-1
1:1:1
-1:-1
0:1:1
-1:-1
0:6:1
-1:-1
0:1:1
-1:-1
0:2:1
-1:1
0:1:1
-1:-1
0:5:1
-1:-1
3:3:1
0:-1
0:1:1
-1:-1
0:1:1
-1:-1
0:2:1
-1:-1
0:4:1
-1:-1
0:0:1
-1:-1
0:1:1
-1:-1
0:5:1
-1:-1
1:1:1
-1:-1
2:3:1
0:-1
0:3:1
-1:1
0:1:1
-1:-1
0:8:1
-1:1
0:6:1
-1:-1
0:5:1
-1:-1
0:2:1
-1:-1
0:4:1
-1:1
0:3:1
-1:-1
0:2:1
-1:1
0:2:1
-1:1
0:1:1
-1:-1
0:1:1
-1:1
0:0:1
-1:-1
0:7:1
-1:-1
0:1:1
-1:-1
1:8:1
-1:-1
0:11:1
-1:1
0:1:1
-1:-1
0:2:1
-1:-1
2:3:1
0:-1
0:5:1
-1:1
1:1:1
-1:-1
0:1:1
-1:-1
0:1:1
-1:-1
0:2:1
-1:1
0:2:1
-1:-1
0:6:1
-1:-1
0:6:1
-1:-1
0:7:1
-1:-1
0:2:1
-1:1
0:3:1
-1:1
0:7:1
-1:1
0:5:1
-1:-1
0:4:1
-1:1
0:4:1
-1:-1
0:11:1
-1:-1
4:8:1
1:1
0:10:2
-1:-1
0:7:1
-1:1
1:8:1
-1:1
2:7:1
0:-1
0:9:1
-1:-1
0:8:1
-1:-1
0:2:1
-1:1
0:2:1
-1:-1
1:3:1
-1:1
0:0:1
-1:-1
0:2:1
-1:-1
0:6:1
-1:1
0:3:1
-1:-1
0:3:1
-1:1
2:7:1
0:1
0:9:2
-1:-1
5:3:1
1:1
4:6:2
1:0
2:7:3
0:-1
0:6:3
-1:-1
0:2:2
-1:0
0:2:1
-1:-1
0:0:1
-1:-1
0:2:1
-1:-1
0:0:1
-1:-1
0:1:1
-1:-1
0:2:1
-1:-1
0:10:1
-1:1
0:0:1
-1:-1
0:1:1
-1:-1
0:0:1
-1:-1
0:3:1
-1:-1
0:8:1
-1:1
0:1:1
-1:-1
0:5:1
-1:-1
0:5:1
-1:-1
0:0:1
-1:-1
0:1:1
-1:-1
0:2:1
-1:-1
0:4:1
-1:-1
0:0:1
-1:-1
0:0:1
-1:-1
0:1:1
-1:-1
2:15:1
0:1
0:4:2
-1:-1
0:1:1
-1:-1
0:1:1
-1:-1
0:1:1
-1:-1
0:2:1
-1:1
0:1:1
-1:-1
0:3:1
-1:-1
0:5:1
-1:-1
0:2:1
-1:-1
0:6:1
-1:-1
0:0:1
-1:-1
0:1:1
-1:-1
0:3:1
-1:-1
1:4:1
-1:-1
0:9:1
-1:-1
0:0:1
-1:-1
0:0:1
-1:-1
0:2:1
-1:-1
0:2:1
-1:-1
0:1:1
-1:-1
0:4:1
-1:-1
0:3:1
-1:-1
0:3:1
-1:-1
0:19:1
-1:-1
0:0:1
-1:-1
0:1:1
-1:-1
0:4:1
-1:-1
0:3:1
-1:-1
0:5:1
-1:1
0:3:1
-1:-1
0:4:1
-1:-1
2:7:1
0:-1
0:0:1
-1:-1
0:2:1
-1:-1
0:0:1
-1:-1
0:1:1
-1:-1
0:6:1
-1:1
0:3:1
-1:-1
0:3:1
-1:-1
0:2:1
-1:-1
0:0:1
-1:-1
0:1:1
-1:-1
0:2:1
-1:-1
0:2:1
-1:-1
0:10:1
-1:1
0:5:1
-1:1
0:0:1
-1:-1
0:0:1
-1:-1
0:1:1
-1:-1
0:4:1
-1:1
0:2:1
-1:-1
0:6:1
-1:1
0:3:1
-1:-1
0:2:1
-1:-1
0:3:1
-1:-1
0:5:1
-1:1
0:1:1
-1:-1
0:2:1
-1:-1
0:10:1
-1:-1
0:5:1
-1:-1
0:5:1
-1:-1
0:1:1
-1:-1
0:2:1
-1:-1
0:5:1
-1:-1
0:7:1
-1:-1
1:3:1
-1:-1
0:6:1
-1:-1
0:1:1
-1:-1
1:19:1
-1:1
0:4:1
-1:1
0:1:1
-1:-1
0:2:1
-1:1
0:1:1
-1:-1
0:2:1
-1:-1
0:0:1
-1:-1
0:2:1
-1:-1
0:1:1
-1:-1
0:12:1
-1:1
0:0:1
-1:-1
0:0:1
-1:-1
0:1:1
-1:-1
0:0:1
-1:-1
0:0:1
-1:-1
0:8:1
-1:-1
0:0:1
-1:-1
0:1:1
-1:-1
0:0:1
-1:-1
2:1:1
0:-1
0:1:1
-1:-1
0:0:1
-1:-1
0:0:1
-1:-1
0:5:1
-1:-1
0:3:1
-1:-1
0:1:1
-1:-1
0:2:1
-1:-1
0:3:1
-1:-1
0:0:1
-1:-1
0:2:1
-1:-1
0:5:1
-1:1
0:4:1
-1:-1
0:2:1
-1:-1
0:13:1
-1:-1
0:3:1
-1:-1
0:0:1
-1:-1
0:3:1
-1:-1
0:21:1
-1:1
0:2:1
-1:-1
0:0:1
-1:-1
0:4:1
-1:-1
0:4:1
-1:-1
0:0:1
-1:-1
0:1:1
-1:-1
0:0:1
-1:-1
0:1:1
-1:-1
0:12:1
-1:-1
1:3:1
-1:-1
0:19:1
-1:-1
0:2:1
-1:-1
0:0:1
-1:-1
0:7:1
-1:-1
0:4:1
-1:1
0:1:1
-1:-1
0:9:1
-1:-1
0:3:1
-1:-1
0:1:1
-1:1
0:1:1
-1:-1
0:4:1
-1:1
0:2:1
-1:1
0:1:1
-1:-1
0:5:1
-1:-1
1:11:1
-1:1
0:15:1
-1:-1
9:2:1
2:-1
0:11:1
-1:-1
0:5:1
-1:-1
0:1:1
-1:-1
0:4:1
-1:-1
0:3:1
-1:-1
0:3:1
-1:1
0:7:1
-1:-1
0:6:1
-1:1
0:4:1
-1:1
0:12:1
-1:-1
0:3:1
-1:-1
0:9:1
-1:-1
0:2:1
-1:-1
0:3:1
-1:-1
0:0:1
-1:-1
0:0:1
-1:-1
0:2:1
-1:-1
0:7:1
-1:1
0:6:1
-1:1
0:1:1
-1:-1
0:4:1
-1:-1
0:2:1
-1:1
0:4:1
-1:1
0:12:1
-1:1
0:2:1
-1:1
0:0:1
-1:-1
0:1:1
-1:1
2:1:1
0:-1
0:1:1
-1:-1
0:0:1
-1:-1
0:1:1
-1:-1
0:0:1
-1:-1
0:2:1
-1:-1
0:0:1
-1:-1
0:2:1
-1:-1
0:4:1
-1:-1
0:6:1
-1:-1
0:0:1
-1:-1
0:5:1
-1:-1
0:0:1
-1:-1
0:0:1
-1:-1
0:0:1
-1:-1
0:1:1
-1:-1
0:1:1
-1:1
0:3:1
-1:-1
0:6:1
-1:1
0:1:1
-1:1
0:1:1
-1:-1
0:1:1
-1:-1
0:5:1
-1:-1
0:5:1
-1:-1
0:2:1
-1:1
0:3:1
-1:-1
0:2:1
-1:1
0:1:1
-1:-1
0:5:1
-1:-1
0:2:1
-1:-1
0:3:1
-1:-1
0:12:1
-1:-1
0:8:1
-1:-1
0:0:1
-1:-1
0:4:1
-1:-1
0:3:1
-1:1
0:0:1
-1:-1
2:5:1
0:-1
0:6:1
-1:-1
0:0:1
-1:-1
0:1:1
-1:-1
0:3:1
-1:-1
0:1:1
-1:-1
0:0:1
-1:-1
0:2:1
-1:-1
0:5:1
-1:-1
0:1:1
-1:-1
0:4:1
-1:1
0:1:1
-1:-1
0:6:1
-1:-1
0:0:1
-1:-1
0:3:1
-1:-1
1:3:1
-1:-1
0:1:1
-1:-1
3:7:1
0:1
0:1:2
-1:-1
0:2:1
-1:-1
0:7:1
-1:1
0:7:1
-1:-1
0:10:1
-1:1
2:2:1
0:-1
0:1:1
-1:-1
0:1:1
-1:-1
4:2:1
1:-1
2:1:1
0:-1
0:1:1
-1:-1
0:1:1
-1:-1
0:1:1
-1:-1
0:1:1
-1:1
0:1:1
-1:-1
0:20:1
-1:-1
0:1:1
-1:-1
0:5:1
-1:-1
2:2:1
0:-1
0:0:1
-1:-1
1:1:1
-1:1
2:1:1
0:1
3:1:2
0:0
4:1:2
1:0
5:1:3
1:0
6:1:4
1:0
7:1:5
1:-1
8:1:5
2:-1
9:1:5
2:-1
10:1:5
2:-1
12:2:5
2:0
13:1:6
2:-1
14:1:6
2:-1
15:1:6
2:-1
15:1:6
2:-1
15:1:6
2:-1
15:1:6
2:-1
15:1:6
2:-1
15:1:6
2:-1
0:1:6
-1:-1
2:1:5
0:-1
4:1:5
1:-1
7:1:5
1:-1
0:2:5
-1:-1
0:0:4
-1:-1
0:0:3
-1:-1
0:0:2
-1:-1
0:1:1
-1:-1
2:1:1
0:1
0:5:2
-1:-1
2:9:1
0:-1
6:3:1
1:-1
0:10:1
-1:1
2:3:1
0:-1
0:4:1
-1:-1
7:13:1
1:1
1:5:2
-1:-1
0:6:1
-1:1
0:1:1
-1:-1
0:3:1
-1:1
0:3:1
-1:1
0:2:1
-1:-1
0:1:1
-1:-1
0:0:1
-1:-1
0:7:1
-1:-1
0:1:1
-1:-1
0:1:1
-1:-1
0:4:1
-1:-1
0:1:1
-1:-1
0:0:1
-1:-1
0:2:1
-1:-1
0:3:1
-1:-1
0:1:1
-1:-1
0:1:1
-1:-1
0:3:1
-1:-1
0:3:1
-1:-1
0:11:1
-1:-1
2:0:1
0:-1
0:4:1
-1:-1
0:1:1
-1:-1
0:1:1
-1:1
2:3:1
0:-1
0:1:1
-1:-1
0:3:1
-1:-1
0:3:1
-1:-1
0:0:1
-1:-1
1:1:1
-1:1
2:1:1
0:1
3:1:2
0:0
4:1:2
1:0
5:1:3
1:0
6:1:4
1:0
0:0:5
-1:-1
0:1:4
-1:-1
0:0:3
-1:-1
0:1:2
-1:-1
0:2:1
-1:-1
0:0:1
-1:-1
0:0:1
-1:-1
0:0:1
-1:-1
0:0:1
-1:-1
0:0:1
-1:-1
0:0:1
-1:-1
0:0:1
-1:-1
0:2:1
-1:-1
0:2:1
-1:-1
2:1:1
0:-1
0:2:1
-1:-1
0:2:1
-1:-1
0:0:1
-1:-1
0:0:1
-1:-1
0:0:1
-1:-1
0:0:1
-1:-1
0:0:1
-1:-1
0:0:1
-1:-1
0:0:1
-1:-1
0:1:1
-1:-1
0:0:1
-1:-1
0:2:1
-1:-1
0:1:1
-1:-1
0:1:1
-1:-1
0:4:1
-1:-1
0:4:1
-1:-1
0:2:1
-1:-1
0:1:1
-1:-1
0:1:1
-1:-1
0:2:1
-1:1
2:1:1
0:-1
0:5:1
-1:1
0:2:1
-1:-1
0:10:1
-1:-1
0:1:1
-1:1
0:4:1
-1:-1
0:4:1
-1:-1
0:6:1
-1:-1
0:4:1
-1:-1
0:0:1
-1:-1
0:0:1
-1:-1
0:1:1
-1:-1
0:0:1
-1:-1
0:4:1
-1:-1
0:0:1
-1:-1
0:0:1
-1:-1
0:1:1
-1:-1
0:3:1
-1:-1
2:1:1
0:-1
2:8:1
0:-1
0:5:1
-1:1
2:3:1
0:-1
3:4:1
0:1
2:4:2
0:-1
0:2:2
-1:0
0:1:1
-1:1
2:2:1
0:1
3:1:2
0:0
4:1:2
1:0
5:1:3
1:0
6:1:4
1:0
7:1:5
1:-1
8:1:5
2:-1
9:1:5
2:-1
10:1:5
2:-1
11:1:5
2:-1
0:2:5
-1:-1
4:4:4
1:0
0:2:5
-1:-1
3:1:4
0:-1
1:0:4
-1:-1
0:0:3
-1:-1
0:1:2
-1:-1
0:0:1
-1:-1
0:0:1
-1:-1
0:1:1
-1:-1
2:2:1
0:1
3:1:2
0:0
0:0:2
-1:-1
0:1:1
-1:-1
0:0:1
-1:-1
0:0:1
-1:-1
0:1:1
-1:-1
1:1:1
-1:1
2:1:1
0:1
3:1:2
0:0
4:1:2
1:0
5:1:3
1:0
6:1:4
1:0
7:1:5
1:-1
8:1:5
2:-1
9:1:5
2:-1
10:1:5
2:-1
11:1:5
2:-1
12:1:5
2:-1
13:1:5
2:-1
14:1:5
2:-1
15:1:5
2:-1
0:1:5
-1:-1
0:2:4
-1:0
0:1:3
-1:-1
2:4:2
0:0
0:5:2
-1:0
1:1:1
-1:1
2:1:1
0:1
3:1:2
0:0
4:1:2
1:0
5:1:3
1:0
6:1:4
1:0
7:1:5
1:-1
8:1:5
2:-1
0:1:5
-1:-1
2:2:4
0:0
0:1:4
-1:-1
0:1:3
-1:-1
0:3:2
-1:-1
0:1:1
-1:-1
0:5:1
-1:-1
0:0:1
-1:-1
0:0:1
-1:-1
0:2:1
-1:-1
0:6:1
-1:-1
0:9:1
-1:-1
0:7:1
-1:-1
0:0:1
-1:-1
0:0:1
-1:-1
0:1:1
-1:-1
0:0:1
-1:-1
0:0:1
-1:-1
0:0:1
-1:-1
0:2:1
-1:-1
0:0:1
-1:-1
0:0:1
-1:-1
0:0:1
-1:-1
0:0:1
-1:-1
0:0:1
-1:-1
0:1:1
-1:-1
0:1:1
-1:-1
0:0:1
-1:-1
0:0:1
-1:-1
0:0:1
-1:-1
0:1:1
-1:-1
0:1:1
-1:-1
0:1:1
-1:-1
2:1:1
0:-1
2:1:1
0:-1
0:0:1
-1:-1
0:0:1
-1:-1
0:1:1
-1:-1
0:4:1
-1:-1
0:1:1
-1:-1
0:0:1
-1:-1
0:1:1
-1:-1
0:4:1
-1:-1
0:4:1
-1:1
0:1:1
-1:-1
0:0:1
-1:-1
0:0:1
-1:-1
0:2:1
-1:-1
0:1:1
-1:-1
0:2:1
-1:-1
0:1:1
-1:-1
0:16:1
-1:1
0:4:1
-1:-1
0:1:1
-1:-1
0:2:1
-1:1
0:1:1
-1:-1
0:0:1
-1:-1
0:0:1
-1:-1
0:1:1
-1:-1
0:1:1
-1:1
0:0:1
-1:-1
0:0:1
-1:-1
0:0:1
-1:-1
0:1:1
-1:-1
0:5:1
-1:1
0:0:1
-1:-1
0:7:1
-1:-1
0:2:1
-1:-1
0:5:1
-1:-1
2:30:1
0:-1
0:6:1
-1:-1
0:4:1
-1:1
5:5:1
1:1
0:3:2
-1:-1
0:5:1
-1:1
0:3:1
-1:-1
3:1:1
0:-1
0:0:1
-1:-1
0:0:1
-1:-1
0:18:1
-1:-1
0:6:1
-1:-1
0:3:1
-1:1
0:5:1
-1:-1
0:2:1
-1:-1
0:1:1
-1:-1
0:1:1
-1:-1
0:2:1
-1:-1
0:7:1
-1:-1
0:2:1
-1:-1
0:2:1
-1:-1
0:5:1
-1:1
0:4:1
-1:-1
0:3:1
-1:1
0:2:1
-1:-1
0:8:1
-1:-1
2:1:1
0:-1
2:1:1
0:-1
0:1:1
-1:-1
0:0:1
-1:-1
2:3:1
0:-1
0:0:1
-1:-1
0:1:1
-1:-1
0:4:1
-1:-1
0:0:1
-1:-1
2:6:1
0:-1
0:16:1
-1:-1
0:1:1
-1:-1
0:0:1
-1:-1
0:0:1
-1:-1
0:0:1
-1:-1
0:1:1
-1:-1
0:2:1
-1:-1
0:0:1
-1:-1
0:8:1
-1:-1
0:1:1
-1:-1
0:2:1
-1:-1
0:3:1
-1:1
0:0:1
-1:-1
0:0:1
-1:-1
2:2:1
0:-1
0:0:1
-1:-1
0:0:1
-1:-1
0:4:1
-1:-1
0:3:1
-1:-1
0:3:1
-1:-1
0:3:1
-1:-1
0:8:1
-1:-1
0:2:1
-1:-1
0:4:1
-1:1
0:1:1
-1:-1
0:1:1
-1:-1
0:1:1
-1:-1
0:1:1
-1:-1
0:0:1
-1:-1
2:0:1
0:-1
0:1:1
-1:-1
0:2:1
-1:-1
0:0:1
-1:-1
2:7:1
0:1
0:1:2
-1:-1
0:3:1
-1:-1
0:1:1
-1:-1
0:1:1
-1:-1
0:0:1
-1:-1
0:0:1
-1:-1
0:1:1
-1:-1
0:3:1
-1:-1
0:2:1
-1:-1
0:0:1
-1:-1
0:1:1
-1:-1
0:2:1
-1:-1
0:2:1
-1:1
0:0:1
-1:-1
0:1:1
-1:-1
1:2:1
-1:1
0:3:1
-1:1
0:7:1
-1:1
0:1:1
-1:-1
0:0:1
-1:-1
0:2:1
-1:-1
0:1:1
-1:-1
0:6:1
-1:-1
0:7:1
-1:-1
0:3:1
-1:-1
0:1:1
-1:-1
2:2:1
0:-1
0:1:1
-1:-1
0:1:1
-1:-1
2:3:1
0:-1
0:4:1
-1:-1
2:1:1
0:-1
2:1:1
0:-1
0:2:1
-1:-1
0:6:1
-1:-1
0:1:1
-1:-1
0:0:1
-1:-1
0:1:1
-1:-1
0:1:1
-1:-1
1:1:1
-1:-1
0:3:1
-1:-1
1:1:1
-1:1
0:0:1
-1:-1
1:1:1
-1:-1
4:2:1
1:-1
0:3:1
-1:-1
0:3:1
-1:-1
2:3:1
0:-1
0:2:1
-1:-1
0:1:1
-1:-1
2:2:1
0:-1
0:0:1
-1:-1
0:1:1
-1:-1
0:1:1
-1:-1
0:2:1
-1:-1
0:0:1
-1:-1
0:0:1
-1:-1
0:0:1
-1:-1
0:0:1
-1:-1
0:7:1
-1:-1
0:3:1
-1:-1
0:3:1
-1:-1
0:0:1
-1:-1
0:1:1
-1:-1
0:4:1
-1:-1
0:0:1
-1:-1
0:2:1
-1:-1
0:0:1
-1:-1
0:7:1
-1:-1
0:37:1
-1:-1
3:9:1
0:-1
2:7:1
0:1
6:4:2
1:1
0:2:3
-1:-1
0:10:2
-1:0
0:0:1
-1:-1
0:0:1
-1:-1
0:1:1
-1:-1
1:1:1
-1:-1
2:2:1
0:-1
0:0:1
-1:-1
0:1:1
-1:-1
0:0:1
-1:-1
0:17:1
-1:-1
0:15:1
-1:1
2:3:1
0:1
0:0:2
-1:-1
0:2:1
-1:-1
0:1:1
-1:-1
0:1:1
-1:-1
0:0:1
-1:-1
0:1:1
-1:-1
0:2:1
-1:-1
0:1:1
-1:-1
0:3:1
-1:-1
2:2:1
0:-1
0:0:1
-1:-1
0:0:1
-1:-1
0:0:1
-1:-1
0:2:1
-1:-1
0:1:1
-1:-1
0:2:1
-1:-1
0:4:1
-1:-1
0:2:1
-1:1
0:1:1
-1:1
0:0:1
-1:-1
0:0:1
-1:-1
0:6:1
-1:-1
0:2:1
-1:-1
0:1:1
-1:1
0:1:1
-1:-1
0:8:1
-1:-1
0:1:1
-1:-1
0:1:1
-1:-1
0:1:1
-1:-1
0:2:1
-1:-1
1:6:1
-1:-1
0:1:1
-1:-1
0:1:1
-1:-1
1:1:1
-1:-1
0:0:1
-1:-1
0:1:1
-1:-1
0:1:1
-1:-1
0:0:1
-1:-1
0:2:1
-1:-1
0:1:1
-1:-1
1:2:1
-1:-1
1:9:1
-1:-1
0:4:1
-1:-1
0:1:1
-1:-1
0:0:1
-1:-1
0:3:1
-1:-1
0:12:1
-1:-1
4:14:1
1:-1
0:20:1
-1:-1
0:2:1
-1:1
0:9:1
-1:-1
0:1:1
-1:-1
0:1:1
-1:-1
0:1:1
-1:-1
0:2:1
-1:-1
0:9:1
-1:1
0:6:1
-1:1
1:5:1
-1:-1
0:1:1
-1:-1
0:3:1
-1:-1
2:4:1
0:1
1:3:2
-1:-1
0:0:1
-1:-1
0:2:1
-1:1
1:5:1
-1:1
0:3:1
-1:-1
0:3:1
-1:-1
0:2:1
-1:1
0:5:1
-1:-1
0:3:1
-1:-1
0:12:1
-1:1
0:3:1
-1:1
2:3:1
0:-1
2:7:1
0:-1
0:6:1
-1:-1
2:7:1
0:-1
0:0:1
-1:-1
0:0:1
-1:-1
0:2:1
-1:-1
0:3:1
-1:-1
0:1:1
-1:-1
0:0:1
-1:-1
0:2:1
-1:-1
0:5:1
-1:-1
2:2:1
0:-1
2:4:1
0:-1
0:5:1
-1:-1
0:2:1
-1:-1
0:3:1
-1:-1
0:1:1
-1:-1
0:1:1
-1:1
0:3:1
-1:-1
0:2:1
-1:-1
0:6:1
-1:1
0:2:1
-1:-1
0:6:1
-1:1
1:7:1
-1:1
2:1:1
0:-1
0:2:1
-1:-1
0:2:1
-1:-1
0:4:1
-1:-1
0:7:1
-1:-1
0:4:1
-1:1
0:2:1
-1:-1
0:1:1
-1:-1
0:5:1
-1:-1
0:5:1
-1:-1
0:1:1
-1:1
0:4:1
-1:-1
0:3:1
-1:-1
0:10:1
-1:1
0:5:1
-1:-1
2:7:1
0:1
0:8:2
-1:-1
0:1:1
-1:-1
0:1:1
-1:-1
0:7:1
-1:1
0:3:1
-1:1
0:2:1
-1:-1
0:1:1
-1:-1
0:1:1
-1:-1
0:1:1
-1:-1
0:1:1
-1:-1
1:2:1
-1:-1
0:17:1
-1:1
0:23:1
-1:1
5:5:1
1:-1
4:6:1
1:-1
0:4:1
-1:1
0:1:1
-1:-1
0:4:1
-1:1
0:12:1
-1:1
0:6:1
-1:1
1:8:1
-1:1
0:7:1
-1:-1
0:4:1
-1:1
0:1:1
-1:1
0:4:1
-1:-1
0:1:1
-1:-1
0:1:1
-1:-1
0:5:1
-1:1
0:1:1
-1:-1
0:0:1
-1:-1
0:3:1
-1:-1
0:1:1
-1:-1
0:0:1
-1:-1
0:1:1
-1:-1
0:8:1
-1:-1
0:6:1
-1:1
0:3:1
-1:-1
2:2:1
0:-1
0:6:1
-1:-1
0:10:1
-1:1
0:9:1
-1:-1
0:8:1
-1:1
0:5:1
-1:1
0:0:1
-1:-1
0:4:1
-1:-1
0:6:1
-1:1
0:1:1
-1:-1
0:7:1
-1:-1
0:19:1
-1:1
0:11:1
-1:1
0:5:1
-1:1
0:0:1
-1:-1
0:2:1
-1:-1
0:7:1
-1:-1
0:1:1
-1:-1
0:4:1
-1:-1
0:5:1
-1:-1
2:7:1
0:1
0:6:2
-1:-1
1:7:1
-1:1
0:5:1
-1:-1
0:3:1
-1:1
0:9:1
-1:1
0:18:1
-1:1
0:1:1
-1:1
1:3:1
-1:-1
0:2:1
-1:-1
0:25:1
-1:1
0:23:1
-1:1
0:0:1
-1:-1
0:3:1
-1:-1
0:5:1
-1:-1
0:11:1
-1:-1
0:6:1
-1:1
0:5:1
-1:1
0:1:1
-1:-1
0:3:1
-1:-1
0:12:1
-1:1
0:4:1
-1:1
0:1:1
-1:-1
0:4:1
-1:1
0:1:1
-1:-1
0:1:1
-1:-1
0:9:1
-1:1
0:3:1
-1:1
0:1:1
-1:1
0:1:1
-1:-1
0:1:1
-1:-1
0:2:1
-1:-1
1:5:1
-1:1
0:6:1
-1:1
0:7:1
-1:1
0:10:1
-1:1
0:9:1
-1:1
0:10:1
-1:-1
0:7:1
-1:-1
0:7:1
-1:1
1:7:1
-1:-1
0:4:1
-1:-1
2:4:1
0:-1
0:8:1
-1:-1
0:4:1
-1:1
0:9:1
-1:-1
2:7:1
0:-1
0:13:1
-1:1
0:1:1
-1:-1
0:3:1
-1:-1
0:1:1
-1:-1
0:7:1
-1:-1
2:3:1
0:-1
0:3:1
-1:-1
0:6:1
-1:-1
2:12:1
0:1
0:3:2
-1:0
0:8:1
-1:-1
2:3:1
0:-1
1:3:1
-1:1
0:0:1
-1:-1
0:1:1
-1:-1
0:2:1
-1:-1
4:3:1
1:-1
1:3:1
-1:-1
2:0:1
0:-1
0:1:1
-1:-1
2:11:1
0:-1
0:8:1
-1:1
0:4:1
-1:1
0:4:1
-1:1
0:5:1
-1:-1
0:7:1
-1:-1
0:1:1
-1:-1
0:0:1
-1:-1
0:0:1
-1:-1
1:4:1
-1:-1
0:5:1
-1:-1
0:10:1
-1:1
0:15:1
-1:-1
0:2:1
-1:-1
0:6:1
-1:1
1:2:1
-1:-1
1:2:1
-1:-1
0:3:1
-1:-1
0:0:1
-1:-1
0:0:1
-1:-1
0:1:1
-1:-1
0:28:1
-1:-1
2:14:1
0:1
1:6:2
-1:-1
0:4:1
-1:1
5:5:1
1:1
0:5:2
-1:-1
1:2:1
-1:-1
0:1:1
-1:-1
1:6:1
-1:-1
0:7:1
-1:-1
0:7:1
-1:1
0:2:1
-1:-1
0:0:1
-1:-1
0:3:1
-1:-1
0:0:1
-1:-1
0:1:1
-1:-1
0:2:1
-1:-1
0:0:1
-1:-1
0:4:1
-1:-1
1:7:1
-1:-1
0:14:1
-1:-1
0:4:1
-1:1
0:3:1
-1:-1
0:3:1
-1:-1
2:16:1
0:-1
1:2:1
-1:-1
0:3:1
-1:1
0:5:1
-1:-1
0:0:1
-1:-1
0:5:1
-1:-1
0:5:1
-1:-1
0:2:1
-1:-1
0:1:1
-1:-1
0:4:1
-1:-1
0:3:1
-1:-1
1:1:1
-1:-1
0:5:1
-1:-1
2:2:1
0:-1
0:8:1
-1:-1
0:18:1
-1:1
2:1:1
0:-1
0:7:1
-1:-1
2:6:1
0:-1
0:1:1
-1:-1
0:12:1
-1:-1
0:3:1
-1:-1
0:11:1
-1:1
0:1:1
-1:-1
0:6:1
-1:-1
0:13:1
-1:-1
0:21:1
-1:1
0:1:1
-1:-1
0:3:1
-1:-1
0:8:1
-1:-1
0:3:1
-1:-1
0:7:1
-1:1
2:5:1
0:-1
0:9:1
-1:1
0:6:1
-1:-1
0:2:1
-1:1
0:1:1
-1:-1
2:3:1
0:-1
0:11:1
-1:-1
0:7:1
-1:-1
0:18:1
-1:1
1:13:1
-1:1
0:0:1
-1:-1
0:0:1
-1:-1
0:1:1
-1:-1
4:1:1
1:-1
0:4:1
-1:-1
0:7:1
-1:1
0:8:1
-1:1
0:5:1
-1:1
0:8:1
-1:1
0:3:1
-1:1
0:4:1
-1:-1
0:12:1
-1:1
0:7:1
-1:1
1:1:1
-1:-1
0:1:1
-1:-1
0:0:1
-1:-1
0:0:1
-1:-1
0:5:1
-1:-1
2:7:1
0:1
0:6:2
-1:-1
0:2:1
-1:-1
0:1:1
-1:-1
2:8:1
0:-1
0:2:1
-1:1
0:0:1
-1:-1
1:1:1
-1:-1
0:0:1
-1:-1
0:1:1
-1:-1
3:6:1
0:1
0:2:2
-1:-1
0:2:1
-1:-1
2:4:1
0:-1
0:5:1
-1:1
0:1:1
-1:-1
0:1:1
-1:-1
0:5:1
-1:-1
0:10:1
-1:1
0:14:1
-1:-1
1:10:1
-1:1
0:4:1
-1:-1
1:10:1
-1:1
0:5:1
-1:-1
0:0:1
-1:-1
0:3:1
-1:-1
0:2:1
-1:1
0:5:1
-1:-1
0:16:1
-1:1
2:17:1
0:1
0:10:2
-1:-1
0:12:1
-1:1
2:6:1
0:1
0:7:2
-1:-1
0:0:1
-1:-1
0:6:1
-1:-1
0:14:1
-1:1
1:2:1
-1:1
1:6:1
-1:-1
2:2:1
0:-1
2:5:1
0:-1
2:2:1
0:-1
0:16:1
-1:-1
2:31:1
0:1
0:6:2
-1:-1
4:6:1
1:1
0:4:2
-1:-1
2:6:1
0:-1
0:8:1
-1:-1
0:1:1
-1:-1
0:2:1
-1:1
0:7:1
-1:-1
2:2:1
0:-1
0:12:1
-1:-1
1:10:1
-1:1
0:9:1
-1:-1
0:4:1
-1:1
0:11:1
-1:-1
0:10:1
-1:1
0:6:1
-1:-1
0:7:1
-1:-1
0:5:1
-1:-1
0:1:1
-1:-1
1:5:1
-1:-1
1:12:1
-1:-1
0:16:1
-1:-1
2:6:1
0:1
0:7:2
-1:-1
0:4:1
-1:1
0:5:1
-1:1
0:6:1
-1:1
0:4:1
-1:1
4:6:1
1:-1
0:8:1
-1:-1
0:7:1
-1:1
2:10:1
0:1
0:10:2
-1:-1
0:11:1
-1:-1
1:3:1
-1:1
0:16:1
-1:-1
0:5:1
-1:1
0:5:1
-1:-1
0:9:1
-1:1
0:20:1
-1:-1
0:0:1
-1:-1
0:5:1
-1:-1
0:1:1
-1:-1
0:5:1
-1:-1
0:8:1
-1:-1
0:9:1
-1:-1
4:11:1
1:1
0:18:2
-1:-1
0:6:1
-1:1
0:4:1
-1:1
1:2:1
-1:-1
0:0:1
-1:-1
0:10:1
-1:-1
0:3:1
-1:1
0:0:1
-1:-1
0:1:1
-1:-1
0:2:1
-1:-1
0:1:1
-1:-1
0:4:1
-1:-1
0:1:1
-1:-1
0:7:1
-1:1
2:11:1
0:1
2:12:2
0:-1
0:4:2
-1:-1
0:2:1
-1:1
0:4:1
-1:-1
0:1:1
-1:-1
2:9:1
0:1
0:1:2
-1:-1
0:0:1
-1:-1
0:18:1
-1:-1
0:7:1
-1:1
0:1:1
-1:-1
0:0:1
-1:-1
0:1:1
-1:-1
2:13:1
0:-1
0:4:1
-1:-1
0:6:1
-1:1
1:15:1
-1:-1
0:6:1
-1:-1
0:19:1
-1:1
0:18:1
-1:-1
2:3:1
0:1
1:3:2
-1:0
0:2:1
-1:-1
0:1:1
-1:-1
0:8:1
-1:1
0:2:1
-1:1
0:3:1
-1:-1
4:4:1
1:1
4:3:2
1:-1
4:2:2
1:-1
0:1:2
-1:-1
0:0:1
-1:-1
0:1:1
-1:-1
0:5:1
-1:-1
0:3:1
-1:1
0:1:1
-1:-1
1:8:1
-1:1
0:15:1
-1:-1
2:4:1
0:1
0:1:2
-1:-1
2:6:1
0:-1
0:5:1
-1:-1
4:15:1
1:1
0:4:2
-1:-1
2:4:1
0:-1
0:35:1
-1:1
2:4:1
0:1
0:5:2
-1:0
0:1:1
-1:-1
1:4:1
-1:-1
0:3:1
-1:-1
2:5:1
0:-1
0:8:1
-1:-1
0:9:1
-1:1
0:10:1
-1:1
0:4:1
-1:1
0:1:1
-1:-1
0:3:1
-1:1
0:1:1
-1:-1
0:7:1
-1:1
0:0:1
-1:-1
0:4:1
-1:-1
0:1:1
-1:-1
0:18:1
-1:1
0:13:1
-1:1
1:2:1
-1:1
1:4:1
-1:-1
2:12:1
0:-1
0:12:1
-1:-1
0:3:1
-1:1
0:2:1
-1:1
0:2:1
-1:1
0:7:1
-1:-1
0:1:1
-1:1
0:1:1
-1:-1
0:2:1
-1:-1
0:21:1
-1:-1
0:0:1
-1:-1
0:4:1
-1:-1
0:2:1
-1:-1
0:1:1
-1:-1
0:10:1
-1:-1
1:3:1
-1:-1
0:0:1
-1:-1
0:2:1
-1:-1
2:8:1
0:1
3:13:2
0:-1
0:8:2
-1:-1
0:10:1
-1:1
0:11:1
-1:-1
0:18:1
-1:1
0:9:1
-1:1
0:6:1
-1:1
0:9:1
-1:1
0:12:1
-1:1
0:5:1
-1:1
2:5:1
0:1
2:21:2
0:-1
0:10:2
-1:-1
0:4:1
-1:1
0:2:1
-1:1
0:11:1
-1:-1
0:11:1
-1:1
2:13:1
0:-1
0:13:1
-1:-1
1:6:1
-1:1
0:6:1
-1:-1
0:18:1
-1:-1
4:12:1
1:-1
0:6:1
-1:1
1:13:1
-1:1
0:6:1
-1:-1
1:5:1
-1:-1
0:7:1
-1:-1
0:4:1
-1:-1
0:1:1
-1:1
0:2:1
-1:-1
0:13:1
-1:-1
0:1:1
-1:1
0:14:1
-1:-1
0:7:1
-1:1
0:0:1
-1:-1
0:9:1
-1:-1
0:4:1
-1:-1
0:12:1
-1:-1
0:4:1
-1:1
0:5:1
-1:-1
0:7:1
-1:1
2:10:1
0:1
0:13:2
-1:-1
0:10:1
-1:-1
0:5:1
-1:-1
1:5:1
-1:-1
0:13:1
-1:-1
0:8:1
-1:1
2:10:1
0:1
0:7:2
-1:0
0:5:1
-1:-1
0:11:1
-1:-1
0:4:1
-1:1
0:4:1
-1:-1
0:9:1
-1:-1
0:8:1
-1:-1
0:6:1
-1:-1
0:6:1
-1:1
2:7:1
0:1
0:38:2
-1:1
2:5:2
0:-1
3:5:2
0:0
0:4:2
-1:1
0:1:2
-1:-1
0:5:1
-1:-1
0:10:1
-1:-1
0:6:1
-1:1
0:6:1
-1:1
0:9:1
-1:1
0:6:1
-1:1
0:4:1
-1:1
0:10:1
-1:1
0:4:1
-1:1
0:2:1
-1:1
2:7:1
0:1
0:1:2
-1:-1
0:8:1
-1:1
0:8:1
-1:1
0:2:1
-1:1
1:9:1
-1:1
2:1:1
0:-1
0:3:1
-1:-1
2:15:1
0:1
0:13:2
-1:-1
0:4:1
-1:1
0:6:1
-1:1
2:17:1
0:1
2:15:2
0:-1
0:16:2
-1:-1
0:8:1
-1:1
0:2:1
-1:1
0:5:1
-1:-1
0:11:1
-1:1
0:7:1
-1:-1
0:16:1
-1:-1
0:14:1
-1:1
0:4:1
-1:-1
0:7:1
-1:-1
0:26:1
-1:1
0:4:1
-1:1
2:12:1
0:1
0:11:2
-1:-1
0:11:1
-1:1
0:8:1
-1:-1
0:5:1
-1:1
0:5:1
-1:-1
0:9:1
-1:-1
0:12:1
-1:-1
0:4:1
-1:-1
0:3:1
-1:-1
0:6:1
-1:-1
0:4:1
-1:-1
1:7:1
-1:-1
0:5:1
-1:1
0:12:1
-1:1
0:2:1
-1:-1
0:3:1
-1:-1
0:1:1
-1:-1
0:3:1
-1:-1
0:6:1
-1:1
0:6:1
-1:-1
0:2:1
-1:1
0:3:1
-1:-1
0:5:1
-1:1
0:3:1
-1:-1
0:10:1
-1:-1
0:1:1
-1:1
0:6:1
-1:-1
0:0:1
-1:-1
0:3:1
-1:-1
0:7:1
-1:1
0:4:1
-1:-1
0:4:1
-1:-1
0:14:1
-1:-1
0:9:1
-1:1
0:1:1
-1:-1
0:7:1
-1:1
0:4:1
-1:-1
0:1:1
-1:1
0:1:1
-1:-1
0:3:1
-1:1
0:0:1
-1:-1
0:17:1
-1:-1
0:7:1
-1:1
0:1:1
-1:-1
2:18:1
0:1
0:12:2
-1:-1
0:2:1
-1:1
0:8:1
-1:1
0:8:1
-1:1
0:18:1
-1:-1
2:6:1
0:-1
0:5:1
-1:-1
0:15:1
-1:1
0:28:1
-1:1
2:6:1
0:-1
3:7:1
0:1
0:3:2
-1:1
0:8:2
-1:-1
0:9:1
-1:-1
0:14:1
-1:-1
0:4:1
-1:-1
1:12:1
-1:-1
0:7:1
-1:-1
0:11:1
-1:-1
0:6:1
-1:-1
0:5:1
-1:-1
1:0:1
-1:-1
0:1:1
-1:-1
0:2:1
-1:-1
0:15:1
-1:1
1:18:1
-1:-1
0:4:1
-1:-1
0:3:1
-1:1
0:6:1
-1:-1
0:11:1
-1:-1
0:2:1
-1:-1
0:1:1
-1:-1
0:0:1
-1:-1
0:0:1
-1:-1
0:3:1
-1:-1
0:5:1
-1:-1
0:0:1
-1:-1
1:0:1
-1:-1
0:2:1
-1:-1
0:1:1
-1:-1
0:3:1
-1:-1
0:1:1
-1:1
0:10:1
-1:-1
0:5:1
-1:1
0:1:1
-1:-1
0:11:1
-1:1
1:1:1
-1:-1
0:9:1
-1:-1
0:3:1
-1:-1
0:21:1
-1:1
0:14:1
-1:-1
0:10:1
-1:1
0:10:1
-1:-1
2:5:1
0:1
0:4:2
-1:-1
0:6:1
-1:-1
0:20:1
-1:1
0:0:1
-1:-1
0:9:1
-1:-1
0:7:1
-1:1
0:13:1
-1:1
2:13:1
0:1
1:12:2
-1:-1
4:6:1
1:-1
0:4:1
-1:-1
0:7:1
-1:1
0:5:1
-1:-1
0:6:1
-1:1
1:1:1
-1:-1
0:2:1
-1:1
0:5:1
-1:1
0:7:1
-1:-1
0:0:1
-1:-1
0:1:1
-1:-1
1:1:1
-1:1
0:3:1
-1:-1
0:12:1
-1:1
1:24:1
-1:1
0:3:1
-1:-1
0:2:1
-1:-1
0:2:1
-1:-1
2:3:1
0:1
0:6:2
-1:-1
0:10:1
-1:-1
0:5:1
-1:-1
0:1:1
-1:-1
0:2:1
-1:-1
0:14:1
-1:1
1:8:1
-1:1
0:7:1
-1:-1
0:4:1
-1:1
0:6:1
-1:1
0:7:1
-1:1
2:13:1
0:1
0:20:2
-1:-1
0:4:1
-1:-1
0:2:1
-1:-1
0:11:1
-1:-1
0:6:1
-1:-1
4:9:1
1:-1
0:1:1
-1:-1
1:5:1
-1:1
0:8:1
-1:-1
0:2:1
-1:1
0:3:1
-1:-1
0:10:1
-1:-1
0:4:1
-1:1
0:8:1
-1:1
0:5:1
-1:-1
0:1:1
-1:-1
0:1:1
-1:-1
0:8:1
-1:1
0:17:1
-1:-1
0:8:1
-1:1
0:3:1
-1:1
0:2:1
-1:-1
0:10:1
-1:1
0:9:1
-1:1
0:7:1
-1:-1
0:7:1
-1:1
2:34:1
0:1
0:12:2
-1:-1
0:19:1
-1:1
0:40:1
-1:-1
1:6:1
-1:-1
3:6:1
0:1
0:5:2
-1:1
0:7:2
-1:-1
2:13:1
0:-1
0:6:1
-1:-1
0:1:1
-1:1
1:13:1
-1:-1
0:4:1
-1:-1
0:0:1
-1:-1
0:4:1
-1:-1
0:8:1
-1:-1
0:9:1
-1:-1
0:2:1
-1:1
0:5:1
-1:1
0:9:1
-1:-1
0:5:1
-1:-1
0:4:1
-1:1
0:3:1
-1:1
0:32:1
-1:-1
4:5:1
1:1
0:10:2
-1:-1
0:16:1
-1:1
0:8:1
-1:-1
0:3:1
-1:1
0:6:1
-1:-1
0:12:1
-1:-1
2:6:1
0:1
0:6:2
-1:-1
0:9:1
-1:1
2:7:1
0:1
0:5:2
-1:-1
0:16:1
-1:-1
0:11:1
-1:1
3:5:1
0:1
2:2:2
0:-1
0:5:2
-1:-1
0:4:1
-1:1
0:3:1
-1:-1
0:13:1
-1:1
0:7:1
-1:1
0:11:1
-1:1
0:8:1
-1:1
0:12:1
-1:-1
0:5:1
-1:1
0:8:1
-1:-1
0:7:1
-1:1
0:8:1
-1:1
0:15:1
-1:1
3:5:1
0:-1
0:0:1
-1:-1
0:1:1
-1:-1
0:1:1
-1:-1
0:3:1
-1:-1
2:12:1
0:1
2:7:2
0:-1
0:9:2
-1:-1
0:8:1
-1:1
0:8:1
-1:-1
0:8:1
-1:-1
0:6:1
-1:-1
0:1:1
-1:1
0:8:1
-1:-1
3:9:1
0:1
0:4:2
-1:-1
0:11:1
-1:-1
0:13:1
-1:1
0:9:1
-1:1
0:7:1
-1:1
0:8:1
-1:1
0:10:1
-1:1
0:13:1
-1:-1
2:11:1
0:1
2:8:2
0:-1
0:4:2
-1:-1
0:6:1
-1:1
0:7:1
-1:1
0:11:1
-1:1
1:4:1
-1:-1
1:10:1
-1:-1
0:8:1
-1:1
0:5:1
-1:1
0:5:1
-1:1
0:4:1
-1:-1
0:5:1
-1:-1
0:7:1
-1:-1
0:2:1
-1:-1
0:5:1
-1:-1
0:2:1
-1:1
0:4:1
-1:-1
0:1:1
-1:-1
0:7:1
-1:1
0:1:1
-1:-1
2:8:1
0:-1
0:3:1
-1:-1
0:8:1
-1:-1
0:7:1
-1:-1
0:2:1
-1:1
0:1:1
-1:-1
0:10:1
-1:-1
0:3:1
-1:-1
0:9:1
-1:-1
0:10:1
-1:-1
0:2:1
-1:-1
0:2:1
-1:-1
2:3:1
0:-1
0:40:1
-1:-1
3:6:1
0:-1
3:5:1
0:-1
0:5:1
-1:1
0:1:1
-1:-1
0:2:1
-1:-1
0:0:1
-1:-1
0:2:1
-1:-1
0:9:1
-1:1
0:2:1
-1:1
0:6:1
-1:1
0:8:1
-1:1
0:4:1
-1:1
0:2:1
-1:1
0:15:1
-1:1
0:5:1
-1:-1
0:6:1
-1:1
1:1:1
-1:-1
0:0:1
-1:-1
2:2:1
0:1
0:0:2
-1:-1
0:1:1
-1:-1
0:2:1
-1:-1
0:17:1
-1:1
0:2:1
-1:-1
0:8:1
-1:-1
0:5:1
-1:-1
0:11:1
-1:-1
0:1:1
-1:-1
0:9:1
-1:-1
0:2:1
-1:-1
0:4:1
-1:1
0:12:1
-1:1
0:8:1
-1:1
0:12:1
-1:1
2:4:1
0:1
1:3:2
-1:-1
0:6:1
-1:-1
0:6:1
-1:1
0:15:1
-1:-1
0:12:1
-1:1
0:4:1
-1:1
0:7:1
-1:1
0:9:1
-1:-1
0:13:1
-1:1
0:9:1
-1:1
0:7:1
-1:1
2:7:1
0:1
0:3:2
-1:-1
0:3:1
-1:-1
0:8:1
-1:-1
0:18:1
-1:1
0:5:1
-1:-1
0:5:1
-1:1
0:7:1
-1:-1
0:1:1
-1:1
0:1:1
-1:-1
0:0:1
-1:-1
0:1:1
-1:-1
0:1:1
-1:1
0:32:1
-1:1
0:0:1
-1:-1
0:2:1
-1:-1
0:1:1
-1:1
0:0:1
-1:-1
0:2:1
-1:1
0:1:1
-1:-1
0:5:1
-1:1
0:9:1
-1:-1
0:2:1
-1:-1
0:3:1
-1:-1
0:9:1
-1:1
1:26:1
-1:1
0:15:1
-1:-1
0:19:1
-1:1
0:14:1
-1:-1
0:8:1
-1:-1
0:18:1
-1:1
0:14:1
-1:1
0:2:1
-1:1
2:4:1
0:1
0:6:2
-1:-1
0:8:1
-1:-1
0:4:1
-1:-1
0:0:1
-1:-1
0:0:1
-1:-1
0:2:1
-1:-1
1:13:1
-1:1
0:17:1
-1:1
0:3:1
-1:1
0:0:1
-1:-1
0:4:1
-1:-1
0:13:1
-1:1
0:6:1
-1:1
0:8:1
-1:1
0:12:1
-1:1
0:3:1
-1:1
0:2:1
-1:-1
0:4:1
-1:1
0:0:1
-1:-1
0:2:1
-1:-1
0:0:1
-1:-1
0:8:1
-1:-1
0:0:1
-1:-1
0:3:1
-1:-1
0:2:1
-1:-1
0:34:1
-1:-1
0:6:1
-1:1
2:7:1
0:1
3:6:2
0:0
0:3:2
-1:1
0:15:2
-1:-1
1:20:1
-1:1
0:5:1
-1:-1
0:7:1
-1:-1
0:14:1
-1:-1
0:11:1
-1:1
0:7:1
-1:1
0:2:1
-1:1
0:0:1
-1:-1
0:0:1
-1:-1
0:7:1
-1:-1
0:5:1
-1:1
2:4:1
0:-1
0:2:1
-1:-1
0:5:1
-1:-1
0:3:1
-1:-1
0:1:1
-1:-1
0:1:1
-1:-1
0:4:1
-1:-1
0:10:1
-1:1
0:5:1
-1:-1
2:13:1
0:-1
0:4:1
-1:-1
0:1:1
-1:-1
2:4:1
0:-1
3:2:1
0:-1
0:3:1
-1:1
2:6:1
0:-1
0:4:1
-1:-1
2:7:1
0:1
1:13:2
-1:-1
0:8:1
-1:-1
2:7:1
0:-1
1:2:1
-1:-1
0:8:1
-1:-1
0:12:1
-1:1
0:3:1
-1:1
0:3:1
-1:-1
0:1:1
-1:-1
0:1:1
-1:-1
2:2:1
0:1
0:0:2
-1:-1
0:10:1
-1:-1
2:7:1
0:1
0:12:2
-1:1
2:14:2
0:-1
0:7:2
-1:-1
2:17:1
0:1
0:7:2
-1:-1
1:8:1
-1:-1
0:5:1
-1:-1
0:11:1
-1:-1
0:20:1
-1:1
0:8:1
-1:1
3:5:1
0:1
0:0:2
-1:-1
0:2:1
-1:-1
0:1:1
-1:-1
0:2:1
-1:-1
1:8:1
-1:-1
0:13:1
-1:-1
0:12:1
-1:1
0:12:1
-1:1
0:8:1
-1:1
0:8:1
-1:1
0:13:1
-1:1
0:8:1
-1:1
0:5:1
-1:1
0:8:1
-1:1
0:7:1
-1:1
0:0:1
-1:-1
3:2:1
0:-1
0:19:1
-1:-1
0:8:1
-1:1
0:9:1
-1:-1
0:4:1
-1:-1
0:3:1
-1:-1
0:6:1
-1:1
0:14:1
-1:1
0:20:1
-1:-1
0:6:1
-1:1
0:0:1
-1:-1
0:12:1
-1:-1
0:12:1
-1:1
0:7:1
-1:1
0:0:1
-1:-1
0:1:1
-1:-1
0:9:1
-1:-1
0:13:1
-1:1
0:13:1
-1:1
0:27:1
-1:1
0:22:1
-1:1
3:6:1
0:1
0:15:2
-1:-1
0:5:1
-1:1
0:5:1
-1:-1
0:4:1
-1:-1
0:14:1
-1:-1
0:7:1
-1:-1
0:9:1
-1:-1
2:3:1
0:-1
1:10:1
-1:-1
0:7:1
-1:-1
0:7:1
-1:1
0:6:1
-1:1
0:11:1
-1:1
1:12:1
-1:1
2:7:1
0:-1
0:7:1
-1:-1
0:3:1
-1:-1
0:5:1
-1:-1
0:6:1
-1:1
0:2:1
-1:-1
0:1:1
-1:-1
0:11:1
-1:1
0:6:1
-1:1
2:6:1
0:1
0:5:2
-1:-1
0:8:1
-1:1
0:9:1
-1:1
0:6:1
-1:1
0:7:1
-1:-1
0:14:1
-1:1
0:11:1
-1:1
0:7:1
-1:1
0:5:1
-1:-1
0:5:1
-1:1
0:8:1
-1:1
0:4:1
-1:1
0:4:1
-1:-1
0:9:1
-1:1
0:0:1
-1:-1
0:1:1
-1:-1
0:9:1
-1:1
0:4:1
-1:1
0:5:1
-1:-1
0:12:1
-1:1
0:7:1
-1:1
0:8:1
-1:1
0:7:1
-1:1
0:12:1
-1:1
0:9:1
-1:-1
0:6:1
-1:-1
2:3:1
0:-1
4:15:1
1:-1
0:2:1
-1:1
0:1:1
-1:1
0:8:1
-1:-1
0:8:1
-1:1
0:3:1
-1:-1
0:0:1
-1:-1
0:0:1
-1:-1
1:2:1
-1:-1
2:1:1
0:-1
2:6:1
0:-1
3:16:1
0:-1
0:10:1
-1:-1
0:9:1
-1:1
0:3:1
-1:-1
0:7:1
-1:-1
0:8:1
-1:-1
0:6:1
-1:1
0:20:1
-1:-1
3:4:1
0:1
0:5:2
-1:-1
0:2:1
-1:1
0:2:1
-1:1
0:2:1
-1:1
0:7:1
-1:1
0:0:1
-1:-1
0:10:1
-1:-1
2:8:1
0:1
0:6:2
-1:-1
0:6:1
-1:1
0:4:1
-1:1
0:5:1
-1:1
0:11:1
-1:1
2:10:1
0:1
0:8:2
-1:-1
0:38:1
-1:-1
2:6:1
0:1
4:4:2
1:-1
0:11:2
-1:0
0:8:1
-1:1
0:4:1
-1:-1
0:6:1
-1:1
0:0:1
-1:-1
0:1:1
-1:-1
0:0:1
-1:-1
0:1:1
-1:-1
0:1:1
-1:-1
0:13:1
-1:-1
0:1:1
-1:-1
0:10:1
-1:-1
0:2:1
-1:1
0:2:1
-1:1
0:0:1
-1:-1
0:3:1
-1:-1
0:0:1
-1:-1
0:4:1
-1:-1
0:9:1
-1:1
0:9:1
-1:-1
0:14:1
-1:1
0:8:1
-1:-1
0:6:1
-1:1
0:8:1
-1:1
2:7:1
0:1
0:5:2
-1:-1
0:0:1
-1:-1
0:1:1
-1:-1
0:0:1
-1:-1
0:0:1
-1:-1
0:0:1
-1:-1
0:3:1
-1:-1
0:12:1
-1:-1
0:5:1
-1:1
0:3:1
-1:1
1:4:1
-1:1
0:13:1
-1:-1
0:4:1
-1:1
0:0:1
-1:-1
0:1:1
-1:-1
0:4:1
-1:1
0:15:1
-1:-1
0:9:1
-1:1
0:4:1
-1:1
0:4:1
-1:1
0:8:1
-1:1
0:10:1
-1:1
0:16:1
-1:1
0:4:1
-1:1
0:7:1
-1:1
0:5:1
-1:-1
1:8:1
-1:-1
1:14:1
-1:-1
0:12:1
-1:-1
0:12:1
-1:-1
0:9:1
-1:1
1:11:1
-1:-1
0:8:1
-1:-1
0:12:1
-1:1
0:5:1
-1:-1
1:11:1
-1:-1
2:7:1
0:-1
0:4:1
-1:-1
0:2:1
-1:1
0:4:1
-1:-1
0:12:1
-1:-1
0:0:1
-1:-1
0:2:1
-1:-1
2:12:1
0:1
3:5:2
0:-1
0:7:2
-1:-1
0:6:1
-1:1
0:15:1
-1:1
0:5:1
-1:1
0:3:1
-1:1
0:3:1
-1:-1
0:2:1
-1:-1
0:1:1
-1:-1
0:8:1
-1:1
0:1:1
-1:-1
0:1:1
-1:-1
0:2:1
-1:-1
1:4:1
-1:1
0:7:1
-1:-1
0:8:1
-1:1
0:10:1
-1:-1
0:10:1
-1:1
0:5:1
-1:1
0:6:1
-1:-1
1:5:1
-1:1
0:10:1
-1:1
2:6:1
0:-1
0:10:1
-1:-1
0:10:1
-1:1
0:6:1
-1:-1
0:6:1
-1:-1
0:9:1
-1:-1
0:12:1
-1:1
0:11:1
-1:1
0:4:1
-1:1
0:38:1
-1:-1
3:7:1
0:-1
4:6:1
1:-1
0:6:1
-1:1
0:7:1
-1:1
0:5:1
-1:1
0:1:1
-1:-1
0:4:1
-1:-1
5:20:1
1:1
0:4:2
-1:-1
2:8:1
0:1
0:6:2
-1:-1
0:1:1
-1:-1
0:0:1
-1:-1
0:5:1
-1:-1
0:7:1
-1:1
3:18:1
0:1
1:10:2
-1:-1
0:8:1
-1:-1
0:9:1
-1:-1
0:5:1
-1:1
0:5:1
-1:-1
0:10:1
-1:1
0:6:1
-1:-1
4:3:1
1:-1
0:0:1
-1:-1
0:1:1
-1:-1
0:1:1
-1:-1
0:6:1
-1:-1
1:7:1
-1:-1
0:12:1
-1:-1
0:7:1
-1:1
0:1:1
-1:1
0:0:1
-1:-1
0:1:1
-1:-1
2:9:1
0:1
0:4:2
-1:-1
2:4:1
0:-1
0:3:1
-1:-1
0:1:1
-1:-1
0:13:1
-1:1
0:6:1
-1:-1
0:9:1
-1:1
0:5:1
-1:-1
0:12:1
-1:-1
2:10:1
0:1
0:14:2
-1:1
0:1:2
-1:-1
0:1:1
-1:-1
1:1:1
-1:-1
0:16:1
-1:-1
0:16:1
-1:1
0:1:1
-1:-1
1:1:1
-1:-1
0:3:1
-1:-1
0:13:1
-1:-1
0:8:1
-1:-1
0:19:1
-1:1
0:16:1
-1:1
0:3:1
-1:-1
0:8:1
-1:-1
2:6:1
0:1
3:7:2
0:-1
2:6:2
0:-1
0:7:2
-1:-1
0:3:1
-1:-1
0:1:1
-1:-1
0:8:1
-1:-1
0:6:1
-1:-1
0:4:1
-1:1
0:5:1
-1:1
0:5:1
-1:-1
0:5:1
-1:-1
0:7:1
-1:-1
1:5:1
-1:1
0:4:1
-1:-1
0:6:1
-1:-1
0:10:1
-1:-1
0:10:1
-1:-1
0:9:1
-1:-1
0:2:1
-1:-1
0:7:1
-1:-1
0:8:1
-1:1
0:4:1
-1:1
2:15:1
0:1
0:5:2
-1:-1
0:1:1
-1:-1
0:1:1
-1:-1
0:12:1
-1:1
0:9:1
-1:-1
0:9:1
-1:1
0:11:1
-1:1
2:6:1
0:1
0:12:2
-1:-1
0:7:1
-1:1
0:8:1
-1:1
0:11:1
-1:1
3:2:1
0:-1
0:5:1
-1:-1
0:10:1
-1:1
0:16:1
-1:1
0:6:1
-1:1
0:4:1
-1:1
1:6:1
-1:-1
1:7:1
-1:-1
0:11:1
-1:-1
1:5:1
-1:-1
0:13:1
-1:-1
0:8:1
-1:1
0:3:1
-1:-1
2:3:1
0:-1
0:1:1
-1:-1
0:8:1
-1:1
0:13:1
-1:1
0:4:1
-1:1
2:9:1
0:1
0:6:2
-1:-1
0:23:1
-1:1
0:21:1
-1:1
3:4:1
0:-1
4:6:1
1:-1
0:6:1
-1:1
0:5:1
-1:-1
0:11:1
-1:-1
0:15:1
-1:1
0:1:1
-1:-1
0:5:1
-1:-1
0:4:1
-1:1
0:9:1
-1:1
0:15:1
-1:1
0:0:1
-1:-1
2:6:1
0:1
0:7:2
-1:-1
0:2:1
-1:1
2:1:1
0:-1
0:6:1
-1:-1
0:7:1
-1:1
0:2:1
-1:-1
0:1:1
-1:-1
0:5:1
-1:-1
0:5:1
-1:-1
0:3:1
-1:1
0:4:1
-1:1
0:2:1
-1:1
0:12:1
-1:-1
0:10:1
-1:-1
2:6:1
0:1
0:6:2
-1:0
0:1:1
-1:-1
0:3:1
-1:1
0:6:1
-1:-1
0:5:1
-1:-1
0:2:1
-1:-1
0:4:1
-1:-1
0:1:1
-1:-1
0:7:1
-1:-1
1:5:1
-1:-1
0:9:1
-1:-1
0:9:1
-1:1
0:7:1
-1:1
0:4:1
-1:1
0:6:1
-1:1
0:8:1
-1:1
0:3:1
-1:-1
0:8:1
-1:1
0:1:1
-1:-1
3:5:1
0:-1
4:1:1
1:-1
0:1:1
-1:-1
0:3:1
-1:-1
0:7:1
-1:1
0:13:1
-1:1
0:19:1
-1:1
0:15:1
-1:-1
2:11:1
0:1
2:10:2
0:-1
0:7:2
-1:-1
0:5:1
-1:1
1:5:1
-1:-1
0:9:1
-1:-1
0:1:1
-1:-1
0:6:1
-1:-1
2:14:1
0:1
0:16:2
-1:-1
0:4:1
-1:-1
0:10:1
-1:-1
0:9:1
-1:-1
0:10:1
-1:1
0:4:1
-1:-1
0:6:1
-1:1
0:8:1
-1:-1
0:8:1
-1:-1
0:4:1
-1:-1
0:4:1
-1:1
0:1:1
-1:-1
2:5:1
0:1
0:1:2
-1:-1
0:8:1
-1:-1
0:7:1
-1:-1
0:1:1
-1:-1
0:2:1
-1:-1
0:4:1
-1:1
1:8:1
-1:1
0:7:1
-1:-1
0:5:1
-1:1
0:9:1
-1:1
0:4:1
-1:1
0:5:1
-1:-1
0:8:1
-1:-1
0:2:1
-1:-1
0:0:1
-1:-1
0:3:1
-1:-1
0:1:1
-1:-1
0:1:1
-1:-1
0:2:1
-1:-1
1:2:1
-1:-1
0:14:1
-1:1
0:4:1
-1:-1
0:5:1
-1:1
0:39:1
-1:-1
2:8:1
0:-1
0:5:1
-1:-1
0:6:1
-1:1
0:13:1
-1:1
0:7:1
-1:1
0:8:1
-1:-1
2:12:1
0:1
1:5:2
-1:-1
2:3:1
0:1
0:4:2
-1:0
1:7:1
-1:1
0:4:1
-1:-1
0:17:1
-1:1
0:10:1
-1:1
0:5:1
-1:1
0:9:1
-1:1
0:13:1
-1:-1
0:9:1
-1:1
0:5:1
-1:1
0:11:1
-1:1
0:8:1
-1:1
0:8:1
-1:-1
0:5:1
-1:-1
0:13:1
-1:1
0:7:1
-1:1
0:5:1
-1:1
0:10:1
-1:-1
2:9:1
0:-1
4:5:1
1:-1
0:0:1
-1:-1
0:2:1
-1:-1
0:1:1
-1:-1
0:7:1
-1:-1
0:8:1
-1:-1
0:1:1
-1:-1
2:1:1
0:-1
0:3:1
-1:-1
0:7:1
-1:1
0:1:1
-1:-1
0:2:1
-1:-1
0:5:1
-1:1
2:2:1
0:-1
0:8:1
-1:-1
0:12:1
-1:-1
0:11:1
-1:1
0:14:1
-1:1
0:0:1
-1:-1
0:5:1
-1:-1
0:2:1
-1:-1
0:4:1
-1:-1
0:5:1
-1:-1
0:3:1
-1:-1
0:7:1
-1:-1
0:6:1
-1:1
0:2:1
-1:-1
0:4:1
-1:-1
0:3:1
-1:1
0:6:1
-1:1
0:5:1
-1:1
0:6:1
-1:1
0:8:1
-1:1
0:3:1
-1:1
0:5:1
-1:-1
0:5:1
-1:-1
2:11:1
0:1
0:4:2
-1:-1
0:4:1
-1:1
0:16:1
-1:-1
0:9:1
-1:1
1:2:1
-1:-1
0:4:1
-1:-1
0:3:1
-1:-1
0:1:1
-1:-1
0:4:1
-1:-1
0:14:1
-1:-1
2:10:1
0:1
0:9:2
-1:0
0:15:1
-1:1
0:11:1
-1:1
0:6:1
-1:1
0:9:1
-1:1
0:5:1
-1:1
0:0:1
-1:-1
0:1:1
-1:-1
1:0:1
-1:-1
0:5:1
-1:-1
0:1:1
-1:-1
0:9:1
-1:1
0:10:1
-1:1
0:0:1
-1:-1
0:10:1
-1:-1
2:6:1
0:-1
0:4:1
-1:-1
0:6:1
-1:-1
2:4:1
0:1
1:22:2
-1:-1
0:18:1
-1:-1
4:8:1
1:1
0:7:2
-1:-1
0:1:1
-1:-1
1:2:1
-1:-1
0:11:1
-1:-1
2:14:1
0:-1
0:9:1
-1:1
0:0:1
-1:-1
0:1:1
-1:-1
0:0:1
-1:-1
0:0:1
-1:-1
1:15:1
-1:-1
0:34:1
-1:-1
0:7:1
-1:-1
0:6:1
-1:-1
0:7:1
-1:1
0:2:1
-1:-1
0:7:1
-1:-1
0:6:1
-1:-1
1:17:1
-1:-1
0:4:1
-1:-1
0:7:1
-1:-1
1:4:1
-1:1
0:2:1
-1:-1
5:19:1
1:-1
6:7:1
1:-1
0:9:1
-1:-1
2:13:1
0:-1
0:11:1
-1:-1
2:9:1
0:1
0:9:2
-1:-1
0:3:1
-1:1
0:18:1
-1:-1
0:5:1
-1:1
0:11:1
-1:-1
0:9:1
-1:1
0:5:1
-1:1
0:9:1
-1:1
1:10:1
-1:1
0:7:1
-1:-1
0:1:1
-1:-1
0:10:1
-1:-1
0:3:1
-1:1
0:4:1
-1:1
0:1:1
-1:-1
0:5:1
-1:-1
0:16:1
-1:-1
0:8:1
-1:1
2:4:1
0:1
0:1:2
-1:-1
3:2:1
0:1
0:2:2
-1:-1
0:10:1
-1:1
4:18:1
1:-1
0:8:1
-1:-1
0:10:1
-1:1
0:1:1
-1:-1
0:6:1
-1:-1
0:0:1
-1:-1
0:3:1
-1:-1
0:8:1
-1:-1
0:11:1
-1:1
0:2:1
-1:-1
0:8:1
-1:-1
0:4:1
-1:-1
0:17:1
-1:1
0:6:1
-1:1
0:2:1
-1:1
1:6:1
-1:-1
0:12:1
-1:-1
0:9:1
-1:1
0:10:1
-1:-1
0:5:1
-1:1
0:5:1
-1:1
1:11:1
-1:1
0:9:1
-1:-1
2:13:1
0:-1
0:6:1
-1:-1
0:3:1
-1:-1
0:5:1
-1:1
0:3:1
-1:1
0:13:1
-1:1
2:12:1
0:1
0:12:2
-1:-1
0:8:1
-1:1
2:12:1
0:1
0:9:2
-1:-1
0:6:1
-1:1
0:5:1
-1:-1
0:10:1
-1:-1
0:5:1
-1:1
0:17:1
-1:1
0:6:1
-1:1
0:4:1
-1:-1
0:12:1
-1:1
0:33:1
-1:1
1:6:1
-1:1
3:6:1
0:1
0:5:2
-1:1
0:6:2
-1:-1
2:2:1
0:-1
0:2:1
-1:-1
4:10:1
1:1
0:9:2
-1:-1
1:6:1
-1:1
0:10:1
-1:-1
0:9:1
-1:1
0:8:1
-1:1
0:7:1
-1:-1
0:3:1
-1:1
1:6:1
-1:1
0:6:1
-1:-1
1:9:1
-1:-1
0:9:1
-1:-1
0:0:1
-1:-1
2:5:1
0:-1
0:9:1
-1:1
0:11:1
-1:-1
0:4:1
-1:-1
0:4:1
-1:-1
0:0:1
-1:-1
0:11:1
-1:-1
0:9:1
-1:1
2:7:1
0:1
1:1:2
-1:-1
0:7:1
-1:1
0:12:1
-1:1
0:6:1
-1:1
0:5:1
-1:1
0:3:1
-1:-1
3:11:1
0:1
0:5:2
-1:-1
1:1:1
-1:1
1:7:1
-1:-1
0:10:1
-1:-1
0:18:1
-1:1
0:5:1
-1:1
2:5:1
0:-1
0:4:1
-1:1
0:7:1
-1:-1
0:7:1
-1:1
3:5:1
0:1
0:8:2
-1:-1
0:7:1
-1:1
0:12:1
-1:1
0:8:1
-1:1
0:12:1
-1:1
2:6:1
0:1
0:1:2
-1:-1
0:3:1
-1:-1
0:4:1
-1:-1
0:10:1
-1:-1
0:8:1
-1:-1
0:4:1
-1:1
0:9:1
-1:1
2:10:1
0:-1
2:4:1
0:-1
0:9:1
-1:-1
0:8:1
-1:-1
0:14:1
-1:1
0:7:1
-1:1
0:12:1
-1:1
0:11:1
-1:1
0:10:1
-1:1
0:4:1
-1:1
0:5:1
-1:-1
0:4:1
-1:1
0:5:1
-1:1
4:4:1
1:-1
0:3:1
-1:-1
0:4:1
-1:1
0:8:1
-1:-1
0:1:1
-1:-1
0:2:1
-1:-1
0:1:1
-1:-1
2:8:1
0:-1
2:7:1
0:-1
0:14:1
-1:-1
0:4:1
-1:1
0:1:1
-1:-1
2:16:1
0:-1
0:4:1
-1:1
0:2:1
-1:-1
0:3:1
-1:-1
3:7:1
0:-1
0:2:1
-1:-1
0:0:1
-1:-1
0:10:1
-1:-1
1:5:1
-1:1
0:12:1
-1:1
0:1:1
-1:-1
0:5:1
-1:-1
1:6:1
-1:-1
0:4:1
-1:-1
0:9:1
-1:-1
0:33:1
-1:1
0:1:1
-1:-1
0:6:1
-1:1
5:8:1
1:1
0:3:2
-1:-1
0:4:1
-1:-1
0:0:1
-1:-1
0:0:1
-1:-1
0:6:1
-1:-1
0:2:1
-1:-1
0:2:1
-1:-1
0:0:1
-1:-1
0:1:1
-1:-1
0:6:1
-1:-1
1:6:1
-1:1
0:0:1
-1:-1
0:5:1
-1:1
0:2:1
-1:1
0:2:1
-1:-1
0:1:1
-1:-1
0:16:1
-1:1
0:9:1
-1:1
1:1:1
-1:1
0:1:1
-1:-1
0:0:1
-1:-1
0:3:1
-1:-1
0:0:1
-1:-1
0:3:1
-1:-1
2:5:1
0:-1
2:2:1
0:-1
2:4:1
0:1
0:2:2
-1:-1
0:0:1
-1:-1
0:1:1
-1:-1
0:1:1
-1:1
0:4:1
-1:-1
0:1:1
-1:-1
2:18:1
0:-1
0:8:1
-1:-1
0:0:1
-1:-1
0:24:1
-1:-1
0:3:1
-1:-1
0:12:1
-1:-1
0:20:1
-1:1
2:6:1
0:1
0:2:2
-1:-1
0:9:1
-1:1
0:5:1
-1:1
0:9:1
-1:1
0:0:1
-1:-1
0:2:1
-1:-1
0:12:1
-1:1
0:10:1
-1:1
0:7:1
-1:1
2:14:1
0:1
0:3:2
-1:-1
0:3:1
-1:-1
0:2:1
-1:1
0:7:1
-1:-1
2:3:1
0:1
0:2:2
-1:-1
0:12:1
-1:-1
0:11:1
-1:1
0:13:1
-1:1
0:11:1
-1:1
0:14:1
-1:1
2:7:1
0:1
0:16:2
-1:0
0:6:1
-1:1
0:6:1
-1:-1
0:5:1
-1:1
2:4:1
0:1
2:7:2
0:-1
0:8:2
-1:0
0:12:1
-1:1
0:12:1
-1:1
0:6:1
-1:1
0:3:1
-1:1
0:13:1
-1:1
0:10:1
-1:1
0:5:1
-1:1
0:6:1
-1:1
0:3:1
-1:-1
0:2:1
-1:-1
0:3:1
-1:-1
0:40:1
-1:-1
4:4:1
1:-1
4:6:1
1:-1
0:4:1
-1:1
0:7:1
-1:1
0:1:1
-1:-1
0:8:1
-1:1
0:12:1
-1:1
0:12:1
-1:1
0:6:1
-1:1
0:9:1
-1:1
0:14:1
-1:1
0:10:1
-1:1
0:8:1
-1:-1
1:2:1
-1:-1
0:10:1
-1:-1
0:14:1
-1:1
0:6:1
-1:-1
0:1:1
-1:-1
0:1:1
-1:-1
0:0:1
-1:-1
0:0:1
-1:-1
0:9:1
-1:-1
0:14:1
-1:-1
0:4:1
-1:-1
1:2:1
-1:-1
0:8:1
-1:-1
0:4:1
-1:-1
0:2:1
-1:-1
0:13:1
-1:-1
0:6:1
-1:1
2:13:1
0:-1
2:9:1
0:-1
0:5:1
-1:-1
0:7:1
-1:1
0:10:1
-1:1
0:9:1
-1:1
0:3:1
-1:-1
0:5:1
-1:-1
1:7:1
-1:-1
1:10:1
-1:-1
0:11:1
-1:-1
0:11:1
-1:1
0:17:1
-1:-1
0:11:1
-1:1
0:7:1
-1:1
0:4:1
-1:1
0:15:1
-1:-1
1:12:1
-1:1
0:6:1
-1:-1
0:8:1
-1:-1
0:16:1
-1:1
1:3:1
-1:-1
0:7:1
-1:-1
0:12:1
-1:1
0:10:1
-1:1
0:1:1
-1:-1
0:12:1
-1:1
3:4:1
0:1
2:10:2
0:-1
0:5:2
-1:-1
0:10:1
-1:-1
0:7:1
-1:1
0:20:1
-1:-1
1:8:1
-1:1
0:2:1
-1:-1
0:7:1
-1:1
0:3:1
-1:1
0:8:1
-1:1
0:6:1
-1:1
0:7:1
-1:1
0:4:1
-1:1
2:6:1
0:-1
0:2:1
-1:-1
2:6:1
0:1
0:18:2
-1:-1
0:6:1
-1:1
0:2:1
-1:-1
0:4:1
-1:-1
0:1:1
-1:-1
0:1:1
-1:-1
1:13:1
-1:1
3:10:1
0:-1
0:5:1
-1:-1
0:5:1
-1:-1
0:9:1
-1:-1
0:40:1
-1:1
1:6:1
-1:1
0:7:1
-1:1
0:14:1
-1:1
2:8:1
0:1
0:1:2
-1:-1
0:15:1
-1:1
0:7:1
-1:-1
0:6:1
-1:1
4:10:1
1:1
0:16:2
-1:0
0:7:1
-1:1
0:3:1
-1:1
0:0:1
-1:-1
0:5:1
-1:1
0:11:1
-1:-1
0:4:1
-1:1
0:0:1
-1:-1
0:0:1
-1:-1
1:5:1
-1:-1
0:10:1
-1:-1
0:12:1
-1:1
0:4:1
-1:-1
0:1:1
-1:-1
0:1:1
-1:-1
1:6:1
-1:1
2:1:1
0:1
0:1:2
-1:-1
0:10:1
-1:1
1:3:1
-1:1
0:2:1
-1:1
2:2:1
0:-1
0:2:1
-1:-1
0:1:1
-1:-1
0:1:1
-1:1
0:5:1
-1:-1
0:13:1
-1:1
0:7:1
-1:1
1:4:1
-1:-1
0:0:1
-1:-1
1:1:1
-1:1
0:0:1
-1:-1
0:2:1
-1:-1
2:1:1
0:1
3:1:2
0:0
0:1:2
-1:-1
0:2:1
-1:1
0:2:1
-1:1
0:3:1
-1:-1
0:4:1
-1:1
2:2:1
0:-1
0:1:1
-1:-1
0:4:1
-1:-1
2:1:1
0:-1
0:2:1
-1:-1
0:13:1
-1:1
2:2:1
0:-1
2:7:1
0:-1
0:0:1
-1:-1
0:2:1
-1:-1
0:4:1
-1:1
0:9:1
-1:-1
2:3:1
0:-1
2:4:1
0:-1
0:2:1
-1:1
0:0:1
-1:-1
0:1:1
-1:-1
0:0:1
-1:-1
0:1:1
-1:-1
0:3:1
-1:1
1:0:1
-1:-1
0:1:1
-1:-1
0:6:1
-1:-1
1:0:1
-1:-1
0:1:1
-1:-1
0:1:1
-1:-1
0:1:1
-1:-1
1:2:1
-1:-1
0:1:1
-1:-1
0:5:1
-1:-1
0:7:1
-1:-1
0:10:1
-1:1
0:15:1
-1:-1
0:8:1
-1:1
0:4:1
-1:-1
0:6:1
-1:1
0:3:1
-1:-1
0:5:1
-1:1
0:4:1
-1:-1
1:2:1
-1:-1
0:1:1
-1:-1
0:1:1
-1:-1
0:3:1
-1:1
0:0:1
-1:-1
0:1:1
-1:1
2:0:1
0:-1
3:1:1
0:1
0:1:2
-1:-1
0:1:1
-1:-1
3:11:1
0:-1
0:22:1
-1:1
0:4:1
-1:1
0:0:1
-1:-1
0:12:1
-1:-1
0:3:1
-1:-1
1:5:1
-1:1
0:3:1
-1:1
0:12:1
-1:-1
0:22:1
-1:1
2:10:1
0:1
1:15:2
-1:-1
0:5:1
-1:-1
0:8:1
-1:-1
0:11:1
-1:1
0:10:1
-1:1
0:12:1
-1:-1
0:4:1
-1:1
0:2:1
-1:1
0:5:1
-1:1
0:4:1
-1:-1
0:1:1
-1:-1
0:7:1
-1:-1
0:18:1
-1:1
0:5:1
-1:-1
0:6:1
-1:-1
0:12:1
-1:1
0:10:1
-1:1
0:8:1
-1:1
0:11:1
-1:1
0:4:1
-1:1
0:9:1
-1:1
0:7:1
-1:1
5:10:1
1:-1
0:19:1
-1:-1
2:13:1
0:1
0:10:2
-1:-1
0:11:1
-1:1
6:8:1
1:1
0:10:2
-1:-1
0:7:1
-1:-1
0:8:1
-1:1
0:3:1
-1:1
1:14:1
-1:1
2:6:1
0:-1
0:6:1
-1:-1
0:10:1
-1:-1
0:6:1
-1:-1
2:5:1
0:1
0:7:2
-1:-1
1:6:1
-1:1
0:5:1
-1:-1
0:11:1
-1:1
2:11:1
0:1
0:6:2
-1:-1
0:3:1
-1:1
0:7:1
-1:-1
1:13:1
-1:-1
0:6:1
-1:-1
3:6:1
0:1
1:12:2
-1:-1
0:2:1
-1:-1
2:5:1
0:1
0:11:2
-1:-1
0:4:1
-1:1
0:2:1
-1:-1
0:12:1
-1:-1
0:3:1
-1:-1
0:10:1
-1:1
1:5:1
-1:1
0:1:1
-1:-1
0:6:1
-1:-1
0:4:1
-1:1
0:8:1
-1:-1
2:2:1
0:-1
2:1:1
0:-1
1:2:1
-1:-1
0:2:1
-1:1
0:2:1
-1:1
0:3:1
-1:-1
3:3:1
0:1
0:9:2
-1:-1
1:4:1
-1:1
4:4:1
1:-1
0:1:1
-1:-1
0:8:1
-1:-1
0:6:1
-1:1
0:1:1
-1:-1
0:3:1
-1:-1
0:5:1
-1:-1
0:2:1
-1:-1
0:6:1
-1:1
0:13:1
-1:1
0:7:1
-1:1
1:6:1
-1:1
0:9:1
-1:-1
0:13:1
-1:1
2:6:1
0:1
1:8:2
-1:-1
0:5:1
-1:-1
0:6:1
-1:1
0:8:1
-1:-1
2:6:1
0:1
1:2:2
-1:-1
0:2:1
-1:-1
0:5:1
-1:-1
0:33:1
-1:-1
2:4:1
0:1
4:4:2
1:-1
6:4:2
1:-1
1:19:2
-1:1
3:13:2
0:-1
1:6:2
-1:0
3:4:1
0:1
4:2:2
1:0
6:3:3
1:0
8:2:4
2:0
9:2:5
2:0
11:2:6
2:0
11:1:7
2:-1
12:2:7
2:0
13:2:8
2:0
14:2:9
2:-1
15:2:9
2:-1
0:1:9
-1:-1
3:2:8
0:0
4:1:8
1:-1
6:2:8
1:0
8:2:9
2:-1
10:2:9
2:-1
12:2:9
2:-1
13:1:9
2:-1
15:2:9
2:-1
15:2:9
2:-1
15:2:9
2:-1
15:2:9
2:-1
15:1:9
2:-1
15:2:9
2:-1
15:2:9
2:-1
15:2:9
2:-1
15:2:9
2:-1
15:2:9
2:-1
15:2:9
2:-1
15:1:9
2:-1
15:2:9
2:-1
15:2:9
2:-1
15:2:9
2:-1
15:2:9
2:-1
15:1:9
2:-1
15:2:9
2:-1
15:2:9
2:-1
15:2:9
2:-1
15:2:9
2:-1
15:2:9
2:-1
15:2:9
2:-1
15:1:9
2:-1
15:2:9
2:-1
15:2:9
2:-1
15:2:9
2:-1
0:1:9
-1:-1
2:1:8
0:-1
4:2:8
1:0
6:2:9
1:-1
8:2:9
2:-1
10:2:9
2:-1
12:2:9
2:-1
14:2:9
2:-1
15:1:9
2:-1
15:2:9
2:-1
15:2:9
2:-1
15:2:9
2:-1
15:2:9
2:-1
15:1:9
2:-1
15:2:9
2:-1
15:2:9
2:-1
15:2:9
2:-1
15:2:9
2:-1
15:2:9
2:-1
15:2:9
2:-1
15:1:9
2:-1
0:1:9
-1:-1
0:3:8
-1:-1
8:7:7
2:-1
15:9:7
2:1
15:9:9
2:1
15:9:11
2:0
15:9:12
2:0
15:9:12
2:0
15:9:12
2:0
3:2:12
0:-1
10:7:12
2:0
15:9:12
2:0
15:9:12
2:0
15:9:12
2:0
15:9:12
2:0
15:9:12
2:0
0:6:12
-1:0
0:0:11
-1:-1
0:0:10
-1:-1
0:12:9
-1:-1
2:8:8
0:-1
0:10:8
-1:-1
1:14:7
-1:-1
0:11:6
-1:-1
0:10:5
-1:-1
0:12:4
-1:0
0:13:3
-1:0
0:12:2
-1:0
2:5:1
0:1
0:8:2
-1:-1
0:25:1
-1:-1
0:9:1
-1:1
0:10:1
-1:1
5:4:1
1:1
0:6:2
-1:-1
3:4:1
0:1
0:1:2
-1:-1
0:10:1
-1:-1
0:26:1
-1:1
0:17:1
-1:-1
0:7:1
-1:1
2:21:1
0:1
5:6:2
1:0
0:11:3
-1:0
3:21:2
0:0
2:6:2
0:-1
0:6:2
-1:-1
0:6:1
-1:1
0:4:1
-1:-1
0:16:1
-1:1
0:9:1
-1:-1
0:7:1
-1:1
0:6:1
-1:-1
0:9:1
-1:1
0:4:1
-1:-1
3:9:1
0:1
5:5:2
1:-1
0:4:2
-1:-1
0:4:1
-1:1
0:15:1
-1:-1
0:8:1
-1:-1
0:7:1
-1:-1
0:7:1
-1:-1
0:6:1
-1:-1
0:5:1
-1:1
0:7:1
-1:-1
0:8:1
-1:1
0:5:1
-1:-1
0:4:1
-1:1
0:4:1
-1:-1
0:11:1
-1:-1
2:4:1
0:1
1:1:2
-1:-1
0:1:1
-1:-1
0:3:1
-1:1
0:4:1
-1:1
0:0:1
-1:-1
0:1:1
-1:-1
0:2:1
-1:1
0:1:1
-1:-1
0:0:1
-1:-1
0:5:1
-1:-1
4:3:1
1:-1
0:3:1
-1:-1
0:6:1
-1:1
0:0:1
-1:-1
0:4:1
-1:-1
0:7:1
-1:-1
0:3:1
-1:-1
0:3:1
-1:1
0:4:1
-1:-1
0:8:1
-1:1
0:5:1
-1:-1
0:12:1
-1:-1
0:6:1
-1:1
0:6:1
-1:1
0:10:1
-1:1
0:8:1
-1:-1
0:17:1
-1:1
0:6:1
-1:-1
2:8:1
0:1
0:8:2
-1:-1
2:9:1
0:1
0:8:2
-1:-1
0:8:1
-1:1
0:1:1
-1:-1
0:1:1
-1:-1
0:2:1
-1:1
0:1:1
-1:-1
0:14:1
-1:1
0:10:1
-1:1
0:3:1
-1:1
2:41:1
0:-1
0:3:1
-1:-1
1:6:1
-1:-1
0:5:1
-1:1
0:10:1
-1:1
2:4:1
0:1
0:6:2
-1:-1
0:6:1
-1:1
0:6:1
-1:1
0:21:1
-1:1
0:1:1
-1:-1
0:5:1
-1:-1
0:5:1
-1:-1
0:9:1
-1:1
0:1:1
-1:-1
4:8:1
1:1
0:7:2
-1:-1
1:4:1
-1:1
2:1:1
0:1
0:0:2
-1:-1
0:11:1
-1:-1
0:9:1
-1:-1
1:7:1
-1:-1
2:4:1
0:-1
0:7:1
-1:-1
0:14:1
-1:1
0:8:1
-1:1
0:4:1
-1:1
0:7:1
-1:1
0:7:1
-1:1
0:1:1
-1:1
0:6:1
-1:-1
0:1:1
-1:-1
0:9:1
-1:1
2:8:1
0:1
2:12:2
0:-1
2:10:2
0:-1
0:4:2
-1:-1
0:6:1
-1:1
1:8:1
-1:1
0:5:1
-1:-1
2:14:1
0:-1
0:9:1
-1:-1
0:4:1
-1:-1
1:7:1
-1:1
0:11:1
-1:-1
0:6:1
-1:1
0:6:1
-1:1
0:4:1
-1:1
1:5:1
-1:1
0:10:1
-1:-1
0:6:1
-1:-1
1:7:1
-1:1
5:14:1
1:-1
0:3:1
-1:-1
0:3:1
-1:1
0:6:1
-1:-1
0:9:1
-1:1
0:1:1
-1:-1
0:12:1
-1:1
0:4:1
-1:1
2:6:1
0:1
0:9:2
-1:-1
0:12:1
-1:1
0:14:1
-1:1
0:9:1
-1:1
0:8:1
-1:1
0:16:1
-1:1
0:8:1
-1:1
0:12:1
-1:1
2:3:1
0:1
0:3:2
-1:-1
1:1:1
-1:-1
0:2:1
-1:1
0:0:1
-1:-1
0:3:1
-1:-1
1:3:1
-1:1
0:35:1
-1:-1
2:7:1
0:-1
0:5:1
-1:1
1:1:1
-1:1
0:6:1
-1:-1
0:4:1
-1:-1
0:3:1
-1:-1
0:14:1
-1:1
0:3:1
-1:1
0:8:1
-1:1
0:7:1
-1:-1
0:8:1
-1:1
1:9:1
-1:-1
1:10:1
-1:-1
0:16:1
-1:-1
0:7:1
-1:1
0:8:1
-1:1
0:3:1
-1:-1
0:7:1
-1:1
0:1:1
-1:-1
1:3:1
-1:1
0:2:1
-1:-1
0:2:1
-1:1
0:8:1
-1:-1
0:4:1
-1:1
0:13:1
-1:1
0:8:1
-1:-1
0:12:1
-1:1
0:11:1
-1:1
0:2:1
-1:1
0:14:1
-1:1
0:11:1
-1:1
2:15:1
0:-1
0:9:1
-1:-1
0:6:1
-1:1
0:2:1
-1:-1
0:0:1
-1:-1
0:1:1
-1:-1
0:3:1
-1:-1
0:4:1
-1:-1
0:12:1
-1:-1
0:1:1
-1:-1
0:8:1
-1:-1
0:6:1
-1:-1
0:2:1
-1:-1
0:3:1
-1:-1
0:6:1
-1:-1
0:3:1
-1:-1
0:7:1
-1:-1
0:4:1
-1:1
0:1:1
-1:-1
0:1:1
-1:-1
0:5:1
-1:-1
0:3:1
-1:1
0:8:1
-1:1
2:4:1
0:-1
0:7:1
-1:-1
0:0:1
-1:-1
0:1:1
[...]
-1:1
0:7:1
-1:1
0:4:1
-1:1
0:5:1
-1:1
0:10:1
-1:1
0:5:1
-1:-1
0:1:1
-1:1
1:3:1
-1:-1
0:2:1
-1:-1
0:12:1
-1:1
0:3:1
-1:1
0:3:1
-1:1
0:2:1
-1:-1
0:0:1
-1:-1
2:8:1
0:-1
0:18:1
-1:-1
0:14:1
-1:1
0:9:1
-1:-1
0:7:1
-1:1
0:7:1
-1:-1
0:11:1
-1:1
1:12:1
-1:-1
0:10:1
-1:-1
0:5:1
-1:-1
0:10:1
-1:1
0:5:1
-1:1
0:7:1
-1:-1
0:7:1
-1:1
0:4:1
-1:1
0:4:1
-1:1
0:10:1
-1:-1
0:2:1
-1:1
0:36:1
-1:-1
2:5:1
0:-1
4:8:1
1:1
0:3:2
-1:1
0:3:2
-1:-1
2:4:1
0:-1
0:3:1
-1:-1
0:1:1
-1:-1
0:1:1
-1:-1
0:2:1
-1:1
2:14:1
0:1
0:1:2
-1:-1
1:4:1
-1:-1
0:5:1
-1:-1
0:5:1
-1:1
0:9:1
-1:1
0:5:1
-1:1
0:4:1
-1:1
2:5:1
0:-1
0:14:1
-1:-1
0:4:1
-1:1
0:0:1
-1:-1
0:10:1
-1:-1
0:7:1
-1:-1
0:6:1
-1:-1
0:3:1
-1:-1
1:7:1
-1:1
0:1:1
-1:-1
0:0:1
-1:-1
0:5:1
-1:1
0:6:1
-1:1
0:0:1
-1:-1
0:1:1
-1:-1
0:1:1
-1:1
0:5:1
-1:-1
0:8:1
-1:1
0:2:1
-1:-1
0:0:1
-1:-1
0:5:1
-1:-1
0:1:1
-1:-1
0:1:1
-1:-1
0:9:1
-1:-1
2:4:1
0:-1
2:8:1
0:-1
2:6:1
0:1
0:16:2
-1:-1
0:8:1
-1:-1
0:5:1
-1:-1
0:4:1
-1:-1
0:1:1
-1:-1
1:3:1
-1:-1
0:2:1
-1:-1
0:10:1
-1:1
0:2:1
-1:1
0:7:1
-1:-1
0:1:1
-1:-1
0:2:1
-1:1
0:4:1
-1:-1
0:1:1
-1:-1
0:2:1
-1:-1
2:2:1
0:-1
1:2:1
-1:-1
0:1:1
-1:-1
0:9:1
-1:1
1:14:1
-1:-1
0:7:1
-1:-1
0:5:1
-1:1
0:4:1
-1:1
0:5:1
-1:1
0:5:1
-1:1
0:12:1
-1:-1
2:11:1
0:1
0:3:2
-1:-1
0:12:1
-1:1
0:5:1
-1:1
0:8:1
-1:1
2:7:1
0:-1
4:18:1
1:1
0:9:2
-1:-1
2:6:1
0:1
1:5:2
-1:-1
0:8:1
-1:-1
2:5:1
0:-1
0:4:1
-1:-1
1:3:1
-1:-1
0:8:1
-1:-1
0:11:1
-1:1
0:7:1
-1:1
0:7:1
-1:1
1:7:1
-1:1
0:6:1
-1:-1
0:11:1
-1:1
0:7:1
-1:1
2:7:1
0:-1
0:6:1
-1:-1
0:14:1
-1:-1
0:6:1
-1:1
2:7:1
0:1
0:7:2
-1:-1
0:9:1
-1:-1
0:9:1
-1:-1
0:4:1
-1:1
1:8:1
-1:1
0:25:1
-1:-1
0:19:1
-1:1
2:7:1
0:1
4:5:2
1:-1
0:5:2
-1:0
0:5:1
-1:1
0:5:1
-1:1
0:2:1
-1:-1
0:0:1
-1:-1
0:2:1
-1:-1
1:9:1
-1:-1
0:5:1
-1:-1
0:12:1
-1:-1
2:10:1
0:1
0:1:2
-1:-1
0:8:1
-1:-1
2:13:1
0:-1
2:3:1
0:-1
0:7:1
-1:-1
2:1:1
0:-1
0:1:1
-1:-1
2:3:1
0:-1
0:2:1
-1:-1
0:4:1
-1:-1
1:9:1
-1:1
0:6:1
-1:1
0:5:1
-1:-1
1:7:1
-1:1
0:5:1
-1:-1
0:15:1
-1:-1
0:10:1
-1:-1
2:9:1
0:-1
0:7:1
-1:-1
2:10:1
0:-1
0:4:1
-1:-1
0:11:1
-1:-1
0:7:1
-1:-1
0:7:1
-1:1
0:13:1
-1:1
0:4:1
-1:1
0:4:1
-1:1
1:6:1
-1:1
0:12:1
-1:1
0:3:1
-1:-1
0:13:1
-1:-1
0:20:1
-1:-1
0:2:1
-1:-1
0:3:1
-1:-1
2:18:1
0:-1
0:9:1
-1:-1
0:9:1
-1:1
0:7:1
-1:1
0:3:1
-1:1
1:6:1
-1:-1
0:6:1
-1:-1
0:2:1
-1:1
0:1:1
-1:-1
0:1:1
-1:-1
0:8:1
-1:-1
0:9:1
-1:1
0:5:1
-1:1
0:3:1
-1:-1
0:2:1
-1:-1
0:1:1
-1:-1
0:3:1
-1:-1
0:1:1
-1:-1
0:4:1
-1:-1
1:7:1
-1:-1
1:8:1
-1:-1
0:9:1
-1:-1
0:3:1
-1:-1
0:19:1
-1:1
0:5:1
-1:1
0:7:1
-1:1
0:9:1
-1:1
0:9:1
-1:1
0:6:1
-1:-1
0:9:1
-1:1
0:8:1
-1:1
0:5:1
-1:-1
0:3:1
-1:-1
0:4:1
-1:-1
0:3:1
-1:-1
0:0:1
-1:-1
0:5:1
-1:-1
2:5:1
0:1
0:6:2
-1:-1
0:13:1
-1:-1
2:4:1
0:-1
0:8:1
-1:-1
0:6:1
-1:1
0:5:1
-1:1
0:4:1
-1:1
0:10:1
-1:1
0:12:1
-1:1
0:7:1
-1:1
0:37:1
-1:-1
0:3:1
-1:-1
3:8:1
0:1
0:3:2
-1:1
0:8:2
-1:-1
0:6:1
-1:-1
2:10:1
0:-1
0:11:1
-1:1
0:0:1
-1:-1
0:4:1
-1:-1
0:8:1
-1:-1
0:21:1
-1:-1
0:4:1
-1:1
0:7:1
-1:1
0:6:1
-1:-1
0:8:1
-1:1
0:11:1
-1:1
0:5:1
-1:-1
0:10:1
-1:-1
0:4:1
-1:1
0:7:1
-1:1
0:10:1
-1:-1
0:11:1
-1:1
2:9:1
0:1
0:15:2
-1:-1
0:3:1
-1:-1
0:22:1
-1:-1
0:4:1
-1:1
0:6:1
-1:-1
0:20:1
-1:1
0:6:1
-1:-1
0:9:1
-1:1
0:13:1
-1:1
0:13:1
-1:1
0:7:1
-1:1
0:6:1
-1:-1
0:4:1
-1:1
0:5:1
-1:-1
2:2:1
0:1
0:2:2
-1:-1
0:7:1
-1:1
0:7:1
-1:1
0:5:1
-1:1
4:9:1
1:1
0:7:2
-1:-1
0:8:1
-1:-1
0:7:1
-1:1
0:7:1
-1:1
0:5:1
-1:-1
0:6:1
-1:-1
0:5:1
-1:1
0:5:1
-1:1
0:4:1
-1:-1
0:10:1
-1:1
1:8:1
-1:1
0:6:1
-1:-1
0:5:1
-1:-1
0:15:1
-1:-1
1:8:1
-1:-1
0:13:1
-1:-1
1:7:1
-1:-1
2:5:1
0:-1
2:15:1
0:1
0:7:2
-1:1
2:4:2
0:-1
0:5:2
-1:-1
0:7:1
-1:1
0:8:1
-1:-1
0:11:1
-1:-1
0:3:1
-1:-1
0:8:1
-1:1
0:13:1
-1:-1
0:3:1
-1:1
2:9:1
0:1
0:5:2
-1:-1
0:4:1
-1:-1
3:5:1
0:1
2:6:2
0:-1
0:4:2
-1:-1
0:4:1
-1:-1
1:6:1
-1:1
1:13:1
-1:-1
0:13:1
-1:-1
0:13:1
-1:1
0:7:1
-1:1
0:7:1
-1:1
0:8:1
-1:1
0:12:1
-1:1
0:3:1
-1:-1
0:7:1
-1:-1
0:6:1
-1:-1
0:9:1
-1:-1
0:3:1
-1:-1
0:1:1
-1:-1
0:8:1
-1:-1
0:5:1
-1:1
0:10:1
-1:1
2:18:1
0:-1
1:25:1
-1:-1
4:5:1
1:1
5:6:2
1:-1
0:10:2
-1:0
1:3:1
-1:1
0:7:1
-1:1
0:7:1
-1:1
0:4:1
-1:1
0:3:1
-1:-1
1:5:1
-1:-1
2:14:1
0:-1
0:5:1
-1:-1
0:8:1
-1:-1
0:9:1
-1:-1
2:7:1
0:-1
0:3:1
-1:-1
0:13:1
-1:-1
0:11:1
-1:-1
0:6:1
-1:1
2:8:1
0:-1
0:4:1
-1:-1
0:2:1
-1:-1
0:5:1
-1:1
0:7:1
-1:1
0:4:1
-1:1
0:16:1
-1:1
0:4:1
-1:1
0:20:1
-1:1
0:2:1
-1:1
2:5:1
0:-1
0:7:1
-1:-1
0:11:1
-1:1
2:4:1
0:1
0:6:2
-1:-1
0:3:1
-1:1
0:11:1
-1:-1
0:2:1
-1:-1
0:0:1
-1:-1
0:1:1
-1:-1
0:0:1
-1:-1
0:11:1
-1:-1
0:3:1
-1:-1
1:1:1
-1:-1
0:0:1
-1:-1
0:0:1
-1:-1
0:0:1
-1:-1
0:2:1
-1:-1
0:1:1
-1:-1
0:6:1
-1:1
0:2:1
-1:-1
1:2:1
-1:-1
0:17:1
-1:1
0:9:1
-1:-1
2:17:1
0:1
0:10:2
-1:-1
0:3:1
-1:-1
0:5:1
-1:1
0:5:1
-1:-1
0:13:1
-1:-1
0:6:1
-1:-1
0:14:1
-1:-1
2:14:1
0:1
0:9:2
-1:-1
0:13:1
-1:1
1:8:1
-1:-1
2:5:1
0:-1
0:7:1
-1:1
0:4:1
-1:-1
0:17:1
-1:1
0:2:1
-1:1
1:7:1
-1:-1
3:5:1
0:-1
5:1:1
1:-1
0:7:1
-1:1
0:15:1
-1:1
2:5:1
0:-1
1:13:1
-1:-1
0:7:1
-1:-1
0:12:1
-1:1
2:16:1
0:-1
2:8:1
0:-1
0:7:1
-1:-1
0:5:1
-1:1
0:7:1
-1:1
0:7:1
-1:1
0:10:1
-1:1
0:3:1
-1:-1
1:16:1
-1:1
2:9:1
0:-1
0:14:1
-1:-1
0:9:1
-1:1
0:6:1
-1:-1
0:13:1
-1:1
0:31:1
-1:1
3:6:1
0:-1
3:4:1
0:-1
0:6:1
-1:1
0:7:1
-1:-1
0:7:1
-1:1
2:5:1
0:1
0:6:2
-1:0
0:1:1
-1:-1
0:10:1
-1:1
0:7:1
-1:1
0:9:1
-1:1
4:24:1
1:-1
0:9:1
-1:1
0:9:1
-1:-1
0:5:1
-1:-1
0:6:1
-1:1
0:9:1
-1:1
0:2:1
-1:-1
0:8:1
-1:-1
0:11:1
-1:1
0:8:1
-1:-1
0:8:1
-1:1
0:8:1
-1:1
0:2:1
-1:-1
0:0:1
-1:-1
0:6:1
-1:-1
0:3:1
-1:-1
0:5:1
-1:-1
0:5:1
-1:-1
0:4:1
-1:1
1:3:1
-1:1
0:2:1
-1:-1
0:8:1
-1:1
0:5:1
-1:1
0:4:1
-1:1
0:4:1
-1:-1
0:0:1
-1:-1
0:2:1
-1:-1
0:3:1
-1:-1
0:3:1
-1:-1
0:4:1
-1:-1
0:9:1
-1:1
0:8:1
-1:1
0:9:1
-1:1
0:2:1
-1:-1
0:1:1
-1:-1
0:4:1
-1:1
0:3:1
-1:-1
2:3:1
0:-1
2:1:1
0:-1
0:0:1
-1:-1
0:0:1
-1:-1
0:4:1
-1:-1
0:9:1
-1:1
0:10:1
-1:-1
0:4:1
-1:-1
0:1:1
-1:-1
1:8:1
-1:1
0:7:1
-1:-1
0:2:1
-1:-1
0:1:1
-1:-1
1:1:1
-1:-1
0:0:1
-1:-1
0:2:1
-1:-1
4:15:1
1:-1
0:17:1
-1:-1
0:4:1
-1:1
4:30:1
1:1
1:16:2
-1:1
2:7:2
0:1
5:3:3
1:1
0:5:4
-1:-1
0:3:3
-1:-1
0:1:2
-1:-1
0:14:1
-1:1
1:5:1
-1:-1
0:6:1
-1:-1
0:3:1
-1:-1
0:1:1
-1:-1
0:12:1
-1:-1
0:2:1
-1:-1
0:1:1
-1:-1
2:16:1
0:-1
2:9:1
0:-1
0:9:1
-1:-1
1:5:1
-1:1
0:1:1
-1:-1
0:3:1
-1:-1
0:12:1
-1:-1
0:6:1
-1:1
2:8:1
0:1
0:13:2
-1:-1
0:12:1
-1:1
0:14:1
-1:1
0:8:1
-1:1
0:6:1
-1:1
0:12:1
-1:-1
0:4:1
-1:1
0:9:1
-1:-1
2:13:1
0:-1
2:11:1
0:-1
2:8:1
0:-1
0:2:1
-1:-1
0:6:1
-1:-1
0:9:1
-1:1
0:7:1
-1:1
0:6:1
-1:1
0:3:1
-1:1
0:14:1
-1:1
4:10:1
1:1
0:6:2
-1:-1
0:5:1
-1:1
0:10:1
-1:-1
0:3:1
-1:1
1:7:1
-1:-1
0:2:1
-1:-1
0:9:1
-1:-1
2:8:1
0:1
0:8:2
-1:-1
0:6:1
-1:1
0:8:1
-1:1
0:6:1
-1:1
0:12:1
-1:-1
2:12:1
0:1
2:9:2
0:-1
0:8:2
-1:-1
0:6:1
-1:-1
0:13:1
-1:1
0:8:1
-1:1
0:9:1
-1:1
3:15:1
0:-1
0:10:1
-1:1
0:5:1
-1:-1
0:10:1
-1:-1
0:5:1
-1:1
0:7:1
-1:1
1:4:1
-1:1
0:4:1
-1:-1
0:5:1
-1:-1
0:4:1
-1:1
0:4:1
-1:-1
0:4:1
-1:1
0:9:1
-1:1
2:3:1
0:-1
0:1:1
-1:-1
0:8:1
-1:-1
0:37:1
-1:-1
3:6:1
0:1
0:5:2
-1:-1
3:1:1
0:-1
2:3:1
0:-1
1:1:1
-1:-1
0:2:1
-1:-1
0:8:1
-1:1
0:8:1
-1:1
0:2:1
-1:1
2:9:1
0:1
0:1:2
-1:-1
0:11:1
-1:1
0:5:1
-1:1
0:5:1
-1:-1
0:8:1
-1:1
0:8:1
-1:1
0:13:1
-1:1
0:4:1
-1:1
0:4:1
-1:-1
0:8:1
-1:1
0:11:1
-1:-1
0:10:1
-1:1
0:13:1
-1:1
0:1:1
-1:1
0:14:1
-1:-1
0:6:1
-1:1
0:7:1
-1:1
0:12:1
-1:-1
0:3:1
-1:1
0:4:1
-1:1
0:3:1
-1:1
0:6:1
-1:1
0:4:1
-1:-1
0:4:1
-1:-1
0:3:1
-1:1
0:5:1
-1:1
0:3:1
-1:-1
0:4:1
-1:1
1:4:1
-1:-1
0:2:1
-1:-1
0:3:1
-1:1
0:4:1
-1:-1
0:2:1
-1:-1
2:10:1
0:-1
0:4:1
-1:-1
0:3:1
-1:1
1:5:1
-1:-1
0:2:1
-1:-1
1:0:1
-1:-1
0:16:1
-1:-1
0:10:1
-1:1
1:7:1
-1:-1
0:23:1
-1:1
0:6:1
-1:-1
0:8:1
-1:1
0:2:1
-1:-1
0:8:1
-1:-1
0:4:1
-1:1
0:2:1
-1:1
0:8:1
-1:-1
0:6:1
-1:-1
1:8:1
-1:-1
0:4:1
-1:-1
0:12:1
-1:1
0:3:1
-1:-1
0:3:1
-1:-1
0:10:1
-1:-1
0:8:1
-1:1
0:17:1
-1:-1
0:23:1
-1:1
3:7:1
0:-1
5:7:1
1:-1
0:7:1
-1:1
1:8:1
-1:1
1:8:1
-1:-1
0:0:1
-1:-1
0:1:1
-1:-1
0:7:1
-1:-1
0:4:1
-1:1
0:4:1
-1:1
1:14:1
-1:1
0:8:1
-1:-1
0:10:1
-1:1
0:5:1
-1:1
0:14:1
-1:-1
0:12:1
-1:1
0:9:1
-1:1
0:8:1
-1:1
0:7:1
-1:1
0:15:1
-1:1
0:8:1
-1:-1
2:20:1
0:1
0:6:2
-1:-1
0:7:1
-1:-1
0:10:1
-1:-1
2:11:1
0:1
0:8:2
-1:-1
0:11:1
-1:-1
0:8:1
-1:1
0:4:1
-1:1
0:5:1
-1:1
1:5:1
-1:1
0:7:1
-1:-1
0:3:1
-1:1
0:3:1
-1:-1
0:7:1
-1:-1
0:3:1
-1:1
0:3:1
-1:-1
1:1:1
-1:-1
0:1:1
-1:-1
0:11:1
-1:1
0:23:1
-1:-1
0:9:1
-1:1
2:2:1
0:-1
0:4:1
-1:-1
0:6:1
-1:1
0:5:1
-1:-1
0:6:1
-1:1
1:4:1
-1:1
0:5:1
-1:-1
1:9:1
-1:1
0:5:1
-1:-1
2:7:1
0:1
0:5:2
-1:-1
0:7:1
-1:1
0:6:1
-1:1
0:18:1
-1:1
0:12:1
-1:1
0:12:1
-1:-1
0:4:1
-1:1
0:8:1
-1:-1
0:3:1
-1:-1
2:4:1
0:-1
0:9:1
-1:-1
2:1:1
0:-1
2:7:1
0:-1
0:12:1
-1:-1
1:6:1
-1:1
2:11:1
0:-1
0:1:1
-1:1
0:0:1
-1:-1
2:15:1
0:-1
0:4:1
-1:-1
0:6:1
-1:-1
2:11:1
0:-1
0:8:1
-1:-1
0:9:1
-1:1
0:14:1
-1:1
0:8:1
-1:-1
0:5:1
-1:1
0:8:1
-1:-1
0:3:1
-1:1
0:6:1
-1:-1
0:7:1
-1:1
0:1:1
-1:-1
Heartbeat CPU 0 instructions: 10000003 cycles: 12347446 heartbeat IPC: 0.809884 cumulative IPC: 0.765105 (Simulation time: 0 hr 0 min 23 sec) 
0:2:1
-1:-1
1:6:1
-1:-1
0:37:1
-1:1
2:7:1
0:1
3:5:2
0:0
0:6:2
-1:1
0:4:2
-1:0
2:21:1
0:-1
2:8:1
0:-1
0:10:1
-1:-1
0:5:1
-1:1
0:4:1
-1:1
0:10:1
-1:-1
0:12:1
-1:1
0:6:1
-1:1
0:9:1
-1:-1
0:7:1
-1:-1
0:12:1
-1:1
0:2:1
-1:-1
4:10:1
1:1
2:4:2
0:-1
0:2:2
-1:-1
0:10:1
-1:1
1:3:1
-1:1
0:4:1
-1:-1
0:5:1
-1:1
0:6:1
-1:-1
0:7:1
-1:1
0:4:1
-1:1
0:8:1
-1:1
0:6:1
-1:-1
0:9:1
-1:1
0:7:1
-1:1
0:6:1
-1:1
0:11:1
-1:1
0:0:1
-1:-1
0:3:1
-1:-1
0:4:1
-1:-1
0:12:1
-1:1
0:5:1
-1:1
0:13:1
-1:1
0:12:1
-1:1
0:5:1
-1:1
0:6:1
-1:1
0:6:1
-1:1
0:2:1
-1:1
0:10:1
-1:1
0:7:1
-1:1
0:6:1
-1:-1
0:13:1
-1:1
0:11:1
-1:1
0:8:1
-1:1
0:6:1
-1:1
0:11:1
-1:-1
1:9:1
-1:1
0:18:1
-1:-1
2:5:1
0:-1
0:7:1
-1:-1
0:5:1
-1:1
0:5:1
-1:1
0:11:1
-1:1
1:8:1
-1:1
1:2:1
-1:-1
0:15:1
-1:1
0:5:1
-1:1
0:5:1
-1:-1
0:6:1
-1:1
0:8:1
-1:-1
0:8:1
-1:1
3:5:1
0:-1
0:4:1
-1:-1
1:3:1
-1:1
0:2:1
-1:-1
0:4:1
-1:-1
2:5:1
0:1
0:3:2
-1:-1
0:5:1
-1:-1
0:2:1
-1:-1
0:9:1
-1:-1
0:9:1
-1:-1
2:8:1
0:1
0:4:2
-1:-1
0:1:1
-1:-1
0:10:1
-1:1
0:5:1
-1:1
0:10:1
-1:-1
0:7:1
-1:1
1:2:1
-1:-1
0:3:1
-1:-1
0:3:1
-1:1
0:2:1
-1:1
0:3:1
-1:-1
0:2:1
-1:1
0:8:1
-1:-1
0:4:1
-1:-1
0:5:1
-1:1
0:6:1
-1:1
0:11:1
-1:-1
0:26:1
-1:-1
3:8:1
0:1
0:6:2
-1:-1
0:2:1
-1:1
0:14:1
-1:1
0:6:1
-1:-1
0:3:1
-1:-1
0:3:1
-1:-1
0:3:1
-1:-1
0:3:1
-1:1
0:19:1
-1:-1
0:5:1
-1:-1
0:7:1
-1:-1
0:8:1
-1:1
1:6:1
-1:1
0:6:1
-1:-1
0:3:1
-1:1
0:5:1
-1:-1
0:4:1
-1:1
0:12:1
-1:1
0:6:1
-1:1
0:7:1
-1:-1
0:4:1
-1:1
1:4:1
-1:1
0:9:1
-1:-1
0:6:1
-1:1
1:3:1
-1:-1
0:12:1
-1:-1
4:9:1
1:1
0:6:2
-1:-1
0:5:1
-1:1
0:5:1
-1:1
1:11:1
-1:1
0:9:1
-1:-1
2:6:1
0:1
0:6:2
-1:0
1:5:1
-1:1
0:6:1
-1:-1
0:15:1
-1:-1
0:10:1
-1:-1
0:4:1
-1:1
0:5:1
-1:-1
0:2:1
-1:1
0:5:1
-1:1
0:7:1
-1:1
0:3:1
-1:1
0:4:1
-1:-1
0:2:1
-1:-1
0:7:1
-1:1
0:8:1
-1:-1
0:11:1
-1:1
0:14:1
-1:1
0:9:1
-1:1
2:9:1
0:1
0:25:2
-1:-1
0:5:1
-1:-1
2:6:1
0:-1
0:5:1
-1:-1
2:4:1
0:1
0:2:2
-1:-1
0:0:1
-1:-1
0:10:1
-1:-1
0:13:1
-1:-1
0:8:1
-1:1
0:1:1
-1:-1
0:10:1
-1:-1
0:8:1
-1:1
0:8:1
-1:1
0:12:1
-1:1
0:1:1
-1:1
0:9:1
-1:-1
0:3:1
-1:1
0:2:1
-1:-1
0:0:1
-1:-1
0:4:1
-1:-1
0:1:1
-1:-1
0:12:1
-1:-1
0:12:1
-1:1
2:9:1
0:1
0:18:2
-1:-1
0:5:1
-1:1
0:3:1
-1:1
1:1:1
-1:-1
0:7:1
-1:-1
0:8:1
-1:-1
0:5:1
-1:-1
0:21:1
-1:1
0:23:1
-1:1
3:8:1
0:1
5:6:2
1:-1
0:3:2
-1:-1
0:9:1
-1:-1
0:2:1
-1:1
0:13:1
-1:1
0:10:1
-1:-1
1:2:1
-1:-1
2:2:1
0:-1
2:1:1
0:-1
0:1:1
-1:-1
0:1:1
-1:-1
0:12:1
-1:-1
0:5:1
-1:1
0:3:1
-1:-1
0:0:1
-1:-1
1:1:1
-1:1
0:1:1
-1:-1
2:1:1
0:-1
0:0:1
-1:-1
0:2:1
-1:-1
0:7:1
-1:1
0:8:1
-1:-1
0:14:1
-1:1
0:13:1
-1:1
0:7:1
-1:1
0:7:1
-1:1
0:7:1
-1:1
0:13:1
-1:1
1:23:1
-1:-1
0:6:1
-1:-1
0:3:1
-1:1
3:2:1
0:-1
0:1:1
-1:-1
0:2:1
-1:-1
0:0:1
-1:-1
0:14:1
-1:-1
0:13:1
-1:1
0:12:1
-1:1
0:12:1
-1:1
0:4:1
-1:1
0:7:1
-1:1
1:12:1
-1:1
0:9:1
-1:-1
0:5:1
-1:1
0:3:1
-1:-1
0:8:1
-1:1
0:6:1
-1:1
3:17:1
0:-1
0:7:1
-1:-1
0:12:1
-1:1
0:8:1
-1:-1
0:6:1
-1:1
0:13:1
-1:1
0:14:1
-1:1
0:15:1
-1:1
0:7:1
-1:-1
0:11:1
-1:1
0:8:1
-1:-1
0:1:1
-1:-1
2:11:1
0:1
0:12:2
-1:-1
0:11:1
-1:-1
0:12:1
-1:1
0:8:1
-1:1
0:7:1
-1:-1
0:13:1
-1:1
0:4:1
-1:-1
2:7:1
0:-1
3:2:1
0:-1
0:7:1
-1:-1
0:8:1
-1:1
0:7:1
-1:1
0:14:1
-1:1
0:25:1
-1:1
2:9:1
0:-1
0:9:1
-1:1
0:11:1
-1:1
0:13:1
-1:-1
0:8:1
-1:1
0:6:1
-1:1
0:7:1
-1:1
0:4:1
-1:-1
0:4:1
-1:1
0:2:1
-1:-1
3:9:1
0:1
2:8:2
0:-1
0:5:2
-1:-1
1:4:1
-1:1
0:10:1
-1:-1
0:6:1
-1:1
0:10:1
-1:-1
0:15:1
-1:1
0:13:1
-1:1
1:6:1
-1:-1
0:5:1
-1:-1
0:8:1
-1:1
1:6:1
-1:-1
0:4:1
-1:-1
0:4:1
-1:-1
0:12:1
-1:1
3:2:1
0:1
0:3:2
-1:-1
1:6:1
-1:1
0:2:1
-1:-1
0:7:1
-1:-1
0:10:1
-1:-1
1:10:1
-1:-1
1:4:1
-1:-1
0:7:1
-1:-1
0:5:1
-1:-1
0:13:1
-1:-1
0:8:1
-1:1
1:7:1
-1:-1
2:8:1
0:1
0:6:2
-1:-1
0:8:1
-1:-1
0:6:1
-1:-1
0:5:1
-1:1
0:2:1
-1:1
0:1:1
-1:-1
1:1:1
-1:-1
0:15:1
-1:-1
0:18:1
-1:-1
0:9:1
-1:1
0:6:1
-1:1
0:4:1
-1:-1
0:4:1
-1:1
2:11:1
0:-1
0:5:1
-1:-1
2:19:1
0:-1
0:9:1
-1:-1
0:3:1
-1:1
0:1:1
-1:-1
2:6:1
0:1
0:3:2
-1:-1
0:11:1
-1:-1
3:9:1
0:1
0:5:2
-1:-1
1:6:1
-1:1
0:5:1
-1:-1
0:2:1
-1:1
0:6:1
-1:1
0:10:1
-1:1
0:10:1
-1:-1
0:10:1
-1:1
2:5:1
0:-1
2:10:1
0:-1
0:3:1
-1:-1
0:11:1
-1:-1
0:0:1
-1:-1
1:0:1
-1:-1
0:0:1
-1:-1
0:9:1
-1:-1
0:4:1
-1:1
0:9:1
-1:-1
0:3:1
-1:-1
0:35:1
-1:-1
0:5:1
-1:1
5:5:1
1:1
0:4:2
-1:-1
0:4:1
-1:-1
0:7:1
-1:-1
0:17:1
-1:-1
0:6:1
-1:1
0:10:1
-1:-1
0:7:1
-1:1
1:7:1
-1:1
0:5:1
-1:-1
0:9:1
-1:1
0:6:1
-1:1
0:4:1
-1:1
0:1:1
-1:-1
0:1:1
-1:-1
0:2:1
-1:-1
0:8:1
-1:-1
0:6:1
-1:1
0:7:1
-1:1
0:15:1
-1:-1
0:13:1
-1:1
0:3:1
-1:1
1:2:1
-1:-1
0:7:1
-1:-1
0:12:1
-1:-1
2:6:1
0:1
0:8:2
-1:-1
1:6:1
-1:-1
0:1:1
-1:-1
1:8:1
-1:1
0:8:1
-1:-1
1:11:1
-1:1
0:7:1
-1:-1
0:13:1
-1:-1
0:15:1
-1:1
0:15:1
-1:1
0:9:1
-1:1
0:11:1
-1:1
0:8:1
-1:1
1:10:1
-1:1
0:6:1
-1:1
0:6:1
-1:1
0:13:1
-1:1
0:8:1
-1:-1
2:5:1
0:1
0:3:2
-1:-1
0:7:1
-1:1
0:1:1
-1:-1
2:9:1
0:-1
0:10:1
-1:-1
0:9:1
-1:1
0:6:1
-1:1
2:18:1
0:-1
0:5:1
-1:-1
0:6:1
-1:-1
2:9:1
0:-1
0:6:1
-1:1
0:2:1
-1:-1
0:14:1
-1:-1
0:11:1
-1:-1
0:3:1
-1:-1
0:3:1
-1:-1
0:3:1
-1:-1
0:5:1
-1:-1
2:10:1
0:1
0:7:2
-1:-1
0:9:1
-1:-1
2:8:1
0:-1
0:5:1
-1:-1
0:6:1
-1:1
0:12:1
-1:-1
2:4:1
0:1
0:10:2
-1:0
0:8:1
-1:1
0:9:1
-1:1
0:7:1
-1:1
0:7:1
-1:1
0:14:1
-1:1
0:5:1
-1:1
2:12:1
0:1
0:5:2
-1:-1
0:4:1
-1:1
0:6:1
-1:1
1:5:1
-1:1
0:5:1
-1:1
4:11:1
1:-1
0:8:1
-1:-1
0:8:1
-1:1
0:6:1
-1:1
0:4:1
-1:-1
0:8:1
-1:1
0:11:1
-1:1
0:6:1
-1:1
0:4:1
-1:1
1:4:1
-1:1
0:36:1
-1:-1
0:7:1
-1:1
0:5:1
-1:-1
5:5:1
1:1
0:7:2
-1:-1
0:13:1
-1:-1
4:15:1
1:-1
0:6:1
-1:-1
0:2:1
-1:-1
0:0:1
-1:-1
0:6:1
-1:-1
0:6:1
-1:-1
0:7:1
-1:-1
0:7:1
-1:1
0:2:1
-1:1
0:1:1
-1:-1
0:11:1
-1:-1
0:3:1
-1:1
0:1:1
-1:-1
0:16:1
-1:-1
0:10:1
-1:-1
0:2:1
-1:-1
0:15:1
-1:1
0:10:1
-1:-1
3:5:1
0:1
3:3:2
0:-1
0:2:2
-1:-1
0:14:1
-1:1
0:11:1
-1:1
0:5:1
-1:-1
0:5:1
-1:1
4:1:1
1:-1
0:13:1
-1:-1
1:4:1
-1:1
0:9:1
-1:-1
0:5:1
-1:-1
0:7:1
-1:1
2:4:1
0:1
2:7:2
0:-1
0:4:2
-1:-1
0:9:1
-1:1
0:6:1
-1:1
0:7:1
-1:-1
0:2:1
-1:-1
0:1:1
-1:-1
0:5:1
-1:-1
0:3:1
-1:-1
0:5:1
-1:-1
1:10:1
-1:-1
0:6:1
-1:-1
0:9:1
-1:1
2:6:1
0:-1
0:8:1
-1:-1
0:4:1
-1:-1
0:2:1
-1:-1
0:11:1
-1:1
0:6:1
-1:1
0:2:1
-1:1
0:13:1
-1:1
1:9:1
-1:1
0:8:1
-1:-1
0:10:1
-1:1
0:6:1
-1:1
0:9:1
-1:1
0:7:1
-1:1
0:9:1
-1:1
0:12:1
-1:-1
3:1:1
0:-1
2:1:1
0:-1
0:5:1
-1:-1
2:10:1
0:1
0:16:2
-1:-1
0:4:1
-1:1
0:5:1
-1:-1
0:4:1
-1:-1
1:6:1
-1:-1
0:6:1
-1:1
0:8:1
-1:1
2:12:1
0:1
1:3:2
-1:0
0:4:1
-1:-1
0:1:1
-1:-1
0:8:1
-1:1
0:15:1
-1:-1
0:5:1
-1:1
0:5:1
-1:1
0:4:1
-1:-1
0:6:1
-1:-1
0:4:1
-1:-1
0:11:1
-1:1
0:12:1
-1:-1
0:4:1
-1:1
0:10:1
-1:-1
0:16:1
-1:-1
0:12:1
-1:1
0:6:1
-1:-1
1:13:1
-1:1
2:3:1
0:-1
0:4:1
-1:-1
0:4:1
-1:-1
2:22:1
0:-1
0:18:1
-1:-1
0:5:1
-1:-1
4:7:1
1:1
0:3:2
-1:0
0:8:1
-1:-1
0:2:1
-1:1
0:2:1
-1:-1
0:3:1
-1:-1
0:4:1
-1:-1
1:9:1
-1:1
0:8:1
-1:-1
2:8:1
0:1
0:6:2
-1:-1
0:2:1
-1:-1
0:3:1
-1:-1
0:7:1
-1:1
0:4:1
-1:1
0:8:1
-1:-1
0:15:1
-1:1
0:8:1
-1:1
2:9:1
0:1
0:6:2
-1:-1
0:7:1
-1:1
0:6:1
-1:1
0:5:1
-1:-1
0:9:1
-1:-1
0:1:1
-1:-1
0:5:1
-1:-1
0:1:1
-1:-1
2:3:1
0:1
4:1:2
1:-1
0:3:2
-1:-1
0:8:1
-1:-1
0:7:1
-1:1
0:9:1
-1:1
0:8:1
-1:1
2:8:1
0:1
2:10:2
0:-1
2:7:2
0:-1
0:5:2
-1:-1
0:5:1
-1:-1
0:5:1
-1:1
1:4:1
-1:1
1:9:1
-1:-1
0:12:1
-1:1
0:8:1
-1:1
0:9:1
-1:1
0:14:1
-1:-1
0:7:1
-1:1
0:7:1
-1:1
0:7:1
-1:-1
0:7:1
-1:1
1:9:1
-1:1
2:4:1
0:-1
0:2:1
-1:-1
0:1:1
-1:1
0:6:1
-1:-1
0:6:1
-1:-1
0:4:1
-1:-1
0:1:1
-1:-1
0:4:1
-1:1
0:10:1
-1:1
0:6:1
-1:1
0:6:1
-1:1
0:8:1
-1:1
0:3:1
-1:1
0:6:1
-1:-1
0:7:1
-1:-1
2:6:1
0:-1
0:1:1
-1:-1
0:3:1
-1:1
2:6:1
0:-1
0:11:1
-1:-1
0:5:1
-1:-1
0:5:1
-1:-1
0:8:1
-1:1
0:3:1
-1:-1
0:13:1
-1:-1
0:4:1
-1:1
0:5:1
-1:-1
0:4:1
-1:-1
0:6:1
-1:-1
1:3:1
-1:-1
0:7:1
-1:-1
1:6:1
-1:-1
0:7:1
-1:-1
2:3:1
0:-1
0:15:1
-1:-1
0:6:1
-1:1
0:9:1
-1:1
0:6:1
-1:-1
0:7:1
-1:1
3:12:1
0:1
0:2:2
-1:-1
0:18:1
-1:-1
0:28:1
-1:-1
1:9:1
-1:1
0:7:1
-1:1
0:10:1
-1:1
1:12:1
-1:1
0:6:1
-1:-1
0:7:1
-1:1
0:9:1
-1:-1
2:4:1
0:1
1:10:2
-1:-1
1:8:1
-1:-1
0:3:1
-1:1
0:0:1
-1:-1
2:3:1
0:-1
0:1:1
-1:-1
2:3:1
0:-1
0:7:1
-1:-1
0:4:1
-1:1
0:5:1
-1:-1
0:3:1
-1:-1
2:2:1
0:1
0:2:2
-1:-1
0:2:1
-1:-1
0:4:1
-1:1
0:3:1
-1:-1
1:6:1
-1:1
0:6:1
-1:-1
0:4:1
-1:-1
0:2:1
-1:-1
2:7:1
0:-1
0:3:1
-1:-1
0:4:1
-1:1
0:5:1
-1:-1
0:4:1
-1:-1
0:6:1
-1:1
0:3:1
-1:-1
0:5:1
-1:1
0:3:1
-1:1
0:10:1
-1:1
0:3:1
-1:1
0:4:1
-1:-1
0:8:1
-1:1
0:3:1
-1:1
0:3:1
-1:-1
0:5:1
-1:-1
1:6:1
-1:1
0:5:1
-1:-1
0:4:1
-1:1
0:11:1
-1:-1
1:5:1
-1:1
0:1:1
-1:-1
0:4:1
-1:1
0:2:1
-1:-1
0:2:1
-1:-1
0:16:1
-1:1
0:8:1
-1:-1
0:15:1
-1:1
0:11:1
-1:-1
0:8:1
-1:1
0:5:1
-1:1
0:8:1
-1:1
0:6:1
-1:-1
0:4:1
-1:1
0:1:1
-1:-1
0:6:1
-1:-1
0:1:1
-1:-1
0:10:1
-1:1
0:5:1
-1:1
0:9:1
-1:-1
2:9:1
0:-1
0:4:1
-1:-1
2:3:1
0:-1
0:4:1
-1:-1
0:7:1
-1:-1
0:6:1
-1:1
0:8:1
-1:1
3:7:1
0:1
1:3:2
-1:-1
0:1:1
-1:-1
0:1:1
-1:-1
2:11:1
0:-1
1:5:1
-1:-1
0:0:1
-1:-1
0:10:1
-1:-1
0:37:1
-1:-1
2:6:1
0:-1
0:7:1
-1:1
0:2:1
-1:1
0:9:1
-1:1
0:8:1
-1:-1
0:13:1
-1:1
0:6:1
-1:-1
1:2:1
-1:1
0:3:1
-1:-1
0:15:1
-1:1
1:6:1
-1:-1
0:16:1
-1:1
0:10:1
-1:1
0:8:1
-1:1
0:9:1
-1:1
0:10:1
-1:-1
0:6:1
-1:1
0:10:1
-1:1
0:7:1
-1:1
0:6:1
-1:1
0:8:1
-1:-1
0:15:1
-1:-1
0:15:1
-1:1
0:4:1
-1:1
0:0:1
-1:-1
1:5:1
-1:-1
0:6:1
-1:1
0:3:1
-1:1
0:5:1
-1:-1
0:10:1
-1:1
0:8:1
-1:1
0:4:1
-1:-1
0:4:1
-1:1
5:8:1
1:1
0:5:2
-1:-1
2:17:1
0:1
1:3:2
-1:-1
0:11:1
-1:1
0:1:1
-1:-1
Finished CPU 0 instructions: 10000002 cycles: 12759978 cumulative IPC: 0.783701 (Simulation time: 0 hr 0 min 26 sec) 

CPU 0 Branch Prediction Accuracy: 93.1719% MPKI: 10.2238 Average ROB Occupancy at Mispredict: 87.4216

ChampSim completed all CPUs

Region of Interest Statistics

CPU 0 cumulative IPC: 0.783701 instructions: 10000002 cycles: 12759978
L1D TOTAL     ACCESS:    2745965  HIT:    2664029  MISS:      81936
L1D LOAD      ACCESS:    1118202  HIT:    1086491  MISS:      31711
L1D RFO       ACCESS:     611602  HIT:     598619  MISS:      12983
L1D PREFETCH  ACCESS:    1016161  HIT:     978919  MISS:      37242
L1D WRITEBACK ACCESS:          0  HIT:          0  MISS:          0
L1D PREFETCH  REQUESTED:    1207947  ISSUED:    1195166  USEFUL:       8311  USELESS:      30707
L1D AVERAGE MISS LATENCY: 11336 cycles
L1I TOTAL     ACCESS:    1533535  HIT:    1533440  MISS:         95
L1I LOAD      ACCESS:    1533535  HIT:    1533440  MISS:         95
L1I RFO       ACCESS:          0  HIT:          0  MISS:          0
L1I PREFETCH  ACCESS:          0  HIT:          0  MISS:          0
L1I WRITEBACK ACCESS:          0  HIT:          0  MISS:          0
L1I PREFETCH  REQUESTED:          0  ISSUED:          0  USEFUL:          0  USELESS:          0
L1I AVERAGE MISS LATENCY: 130.958 cycles
L2C TOTAL     ACCESS:     164530  HIT:     120435  MISS:      44095
L2C LOAD      ACCESS:      31705  HIT:      19207  MISS:      12498
L2C RFO       ACCESS:      12967  HIT:       8211  MISS:       4756
L2C PREFETCH  ACCESS:      78929  HIT:      52172  MISS:      26757
L2C WRITEBACK ACCESS:      40929  HIT:      40845  MISS:         84
L2C PREFETCH  REQUESTED:      74118  ISSUED:      73319  USEFUL:       2543  USELESS:      22861
L2C AVERAGE MISS LATENCY: 147.96 cycles
LLC TOTAL     ACCESS:      58092  HIT:      27008  MISS:      31084
LLC LOAD      ACCESS:      12493  HIT:       3643  MISS:       8850
LLC RFO       ACCESS:       4756  HIT:       1542  MISS:       3214
LLC PREFETCH  ACCESS:      26762  HIT:       7770  MISS:      18992
LLC WRITEBACK ACCESS:      14081  HIT:      14053  MISS:         28
LLC PREFETCH  REQUESTED:          0  ISSUED:          0  USEFUL:       1202  USELESS:       2808
LLC AVERAGE MISS LATENCY: 165.877 cycles
Major fault: 0 Minor fault: 3710
CPU 0 L2C next line prefetcher final stats

DRAM Statistics
 CHANNEL 0
 RQ ROW_BUFFER_HIT:       5002  ROW_BUFFER_MISS:      26054
 DBUS_CONGESTED:      13294
 WQ ROW_BUFFER_HIT:         79  ROW_BUFFER_MISS:       1225  FULL:          0

 AVG_CONGESTED_CYCLE: 3
