
*** ChampSim Multicore Out-of-Order Simulator ***

Warmup Instructions: 1000000
Simulation Instructions: 10000000
Number of CPUs: 1
LLC sets: 2048
LLC ways: 16
Off-chip DRAM Size: 4096 MB Channels: 1 Width: 64-bit Data Rate: 3200 MT/s

CPU 0 runs /home/aniket/Desktop/sem/cs622/cs622-project/champsim/dpc3_traces/603.bwaves_s-3699B.champsimtrace.xz
Ultra pref. initializing...
Ultra pref. initialized
Ultra pref. initializing...
Ultra pref. initialized

Warmup complete CPU 0 instructions: 1000003 cycles: 684882 (Simulation time: 0 hr 0 min 1 sec) 

Heartbeat CPU 0 instructions: 10000000 cycles: 10315986 heartbeat IPC: 0.969369 cumulative IPC: 0.934472 (Simulation time: 0 hr 0 min 14 sec) 
Finished CPU 0 instructions: 10000000 cycles: 10692936 cumulative IPC: 0.935197 (Simulation time: 0 hr 0 min 15 sec) 

CPU 0 Branch Prediction Accuracy: 91.2893% MPKI: 12.4324 Average ROB Occupancy at Mispredict: 77.1521

ChampSim completed all CPUs

Region of Interest Statistics

CPU 0 cumulative IPC: 0.935197 instructions: 10000000 cycles: 10692936
L1D TOTAL     ACCESS:    3007813  HIT:    3007714  MISS:         99
L1D LOAD      ACCESS:    1284212  HIT:    1284204  MISS:          8
L1D RFO       ACCESS:     335781  HIT:     335693  MISS:         88
L1D PREFETCH  ACCESS:    1387820  HIT:    1387817  MISS:          3
L1D WRITEBACK ACCESS:          0  HIT:          0  MISS:          0
L1D PREFETCH  REQUESTED:   15520566  ISSUED:   11616953  USEFUL:         99  USELESS:          0
L1D AVERAGE MISS LATENCY: 121.556 cycles
L1I TOTAL     ACCESS:    2122251  HIT:    2122251  MISS:          0
L1I LOAD      ACCESS:    2122251  HIT:    2122251  MISS:          0
L1I RFO       ACCESS:          0  HIT:          0  MISS:          0
L1I PREFETCH  ACCESS:          0  HIT:          0  MISS:          0
L1I WRITEBACK ACCESS:          0  HIT:          0  MISS:          0
L1I PREFETCH  REQUESTED:          0  ISSUED:          0  USEFUL:          0  USELESS:          0
L1I AVERAGE MISS LATENCY: -nan cycles
L2C TOTAL     ACCESS:        272  HIT:        150  MISS:        122
L2C LOAD      ACCESS:          8  HIT:          8  MISS:          0
L2C RFO       ACCESS:         88  HIT:          0  MISS:         88
L2C PREFETCH  ACCESS:        176  HIT:        142  MISS:         34
L2C WRITEBACK ACCESS:          0  HIT:          0  MISS:          0
L2C PREFETCH  REQUESTED:       6914  ISSUED:       3488  USEFUL:        149  USELESS:          0
L2C AVERAGE MISS LATENCY: 126.369 cycles
LLC TOTAL     ACCESS:        122  HIT:          0  MISS:        122
LLC LOAD      ACCESS:          0  HIT:          0  MISS:          0
LLC RFO       ACCESS:         88  HIT:          0  MISS:         88
LLC PREFETCH  ACCESS:         34  HIT:          0  MISS:         34
LLC WRITEBACK ACCESS:          0  HIT:          0  MISS:          0
LLC PREFETCH  REQUESTED:          0  ISSUED:          0  USEFUL:          0  USELESS:          0
LLC AVERAGE MISS LATENCY: 96.3689 cycles
Major fault: 0 Minor fault: 32

L1D -512>	(-76,1)	(8,1)	(-20,1)	(0,4)	(1,5)	(-1,1)	(2,1)	(25,2)	(1,0)	(1,0)	(1,0)	(1,0)	(1,0)	(1,0)	(1,0)	(1,0)	
L1D -511>	(1,0)	(1,0)	(1,0)	(1,0)	(1,0)	(1,0)	(1,0)	(1,0)	(1,0)	(1,0)	(1,0)	(1,0)	(1,0)	(1,0)	(1,0)	(1,0)	
L1D -510>	(1,0)	(1,0)	(1,0)	(1,0)	(1,0)	(1,0)	(1,0)	(1,0)	(1,0)	(1,0)	(1,0)	(1,0)	(1,0)	(1,0)	(1,0)	(1,0)	
L1D -509>	(1,0)	(1,0)	(1,0)	(1,0)	(1,0)	(1,0)	(1,0)	(1,0)	(1,0)	(1,0)	(1,0)	(1,0)	(1,0)	(1,0)	(1,0)	(1,0)	
L1D -508>	(1,0)	(1,0)	(1,0)	(1,0)	(1,0)	(1,0)	(1,0)	(1,0)	(1,0)	(1,0)	(1,0)	(1,0)	(1,0)	(1,0)	(1,0)	(1,0)	
L1D -507>	(1,0)	(1,0)	(1,0)	(1,0)	(1,0)	(1,0)	(1,0)	(1,0)	(1,0)	(1,0)	(1,0)	(1,0)	(1,0)	(1,0)	(1,0)	(1,0)	
L1D -506>	(1,0)	(1,0)	(1,0)	(1,0)	(1,0)	(1,0)	(1,0)	(1,0)	(1,0)	(1,0)	(1,0)	(1,0)	(1,0)	(1,0)	(1,0)	(1,0)	
L1D -505>	(1,0)	(1,0)	(1,0)	(1,0)	(1,0)	(1,0)	(1,0)	(1,0)	(1,0)	(1,0)	(1,0)	(1,0)	(1,0)	(1,0)	(1,0)	(1,0)	
L1D -504>	(1,0)	(1,0)	(1,0)	(1,0)	(1,0)	(1,0)	(1,0)	(1,0)	(1,0)	(1,0)	(1,0)	(1,0)	(1,0)	(1,0)	(1,0)	(1,0)	
L1D -503>	(1,0)	(1,0)	(1,0)	(1,0)	(1,0)	(1,0)	(1,0)	(1,0)	(1,0)	(1,0)	(1,0)	(1,0)	(1,0)	(1,0)	(1,0)	(1,0)	
L1D -502>	(1,0)	(1,0)	(1,0)	(1,0)	(1,0)	(1,0)	(1,0)	(1,0)	(1,0)	(1,0)	(1,0)	(1,0)	(1,0)	(1,0)	(1,0)	(1,0)	
L1D -501>	(1,0)	(1,0)	(1,0)	(1,0)	(1,0)	(1,0)	(1,0)	(1,0)	(1,0)	(1,0)	(1,0)	(1,0)	(1,0)	(1,0)	(1,0)	(1,0)	
L1D -500>	(1,0)	(1,0)	(1,0)	(1,0)	(1,0)	(1,0)	(1,0)	(1,0)	(1,0)	(1,0)	(1,0)	(1,0)	(1,0)	(1,0)	(1,0)	(1,0)	
L1D -499>	(1,0)	(1,0)	(1,0)	(1,0)	(1,0)	(1,0)	(1,0)	(1,0)	(1,0)	(1,0)	(1,0)	(1,0)	(1,0)	(1,0)	(1,0)	(1,0)	
L1D -498>	(1,0)	(1,0)	(1,0)	(1,0)	(1,0)	(1,0)	(1,0)	(1,0)	(1,0)	(1,0)	(1,0)	(1,0)	(1,0)	(1,0)	(1,0)	(1,0)	
L1D -497>	(1,0)	(1,0)	(1,0)	(1,0)	(1,0)	(1,0)	(1,0)	(1,0)	(1,0)	(1,0)	(1,0)	(1,0)	(1,0)	(1,0)	(1,0)	(1,0)	
L1D -496>	(1,0)	(1,0)	(1,0)	(1,0)	(1,0)	(1,0)	(1,0)	(1,0)	(1,0)	(1,0)	(1,0)	(1,0)	(1,0)	(1,0)	(1,0)	(1,0)	
L1D -495>	(1,0)	(1,0)	(1,0)	(1,0)	(1,0)	(1,0)	(1,0)	(1,0)	(1,0)	(1,0)	(1,0)	(1,0)	(1,0)	(1,0)	(1,0)	(1,0)	
L1D -494>	(1,0)	(1,0)	(1,0)	(1,0)	(1,0)	(1,0)	(1,0)	(1,0)	(1,0)	(1,0)	(1,0)	(1,0)	(1,0)	(1,0)	(1,0)	(1,0)	
L1D -493>	(1,0)	(1,0)	(1,0)	(1,0)	(1,0)	(1,0)	(1,0)	(1,0)	(1,0)	(1,0)	(1,0)	(1,0)	(1,0)	(1,0)	(1,0)	(1,0)	
L1D -492>	(1,0)	(1,0)	(1,0)	(1,0)	(1,0)	(1,0)	(1,0)	(1,0)	(1,0)	(1,0)	(1,0)	(1,0)	(1,0)	(1,0)	(1,0)	(1,0)	
L1D -491>	(1,0)	(1,0)	(1,0)	(1,0)	(1,0)	(1,0)	(1,0)	(1,0)	(1,0)	(1,0)	(1,0)	(1,0)	(1,0)	(1,0)	(1,0)	(1,0)	
L1D -490>	(1,0)	(1,0)	(1,0)	(1,0)	(1,0)	(1,0)	(1,0)	(1,0)	(1,0)	(1,0)	(1,0)	(1,0)	(1,0)	(1,0)	(1,0)	(1,0)	
L1D -489>	(1,0)	(1,0)	(1,0)	(1,0)	(1,0)	(1,0)	(1,0)	(1,0)	(1,0)	(1,0)	(1,0)	(1,0)	(1,0)	(1,0)	(1,0)	(1,0)	
L1D -488>	(1,0)	(1,0)	(1,0)	(1,0)	(1,0)	(1,0)	(1,0)	(1,0)	(1,0)	(1,0)	(1,0)	(1,0)	(1,0)	(1,0)	(1,0)	(1,0)	
L1D -487>	(1,0)	(1,0)	(1,0)	(1,0)	(1,0)	(1,0)	(1,0)	(1,0)	(1,0)	(1,0)	(1,0)	(1,0)	(1,0)	(1,0)	(1,0)	(1,0)	
L1D -486>	(1,0)	(1,0)	(1,0)	(1,0)	(1,0)	(1,0)	(1,0)	(1,0)	(1,0)	(1,0)	(1,0)	(1,0)	(1,0)	(1,0)	(1,0)	(1,0)	
L1D -485>	(1,0)	(1,0)	(1,0)	(1,0)	(1,0)	(1,0)	(1,0)	(1,0)	(1,0)	(1,0)	(1,0)	(1,0)	(1,0)	(1,0)	(1,0)	(1,0)	
L1D -484>	(1,0)	(1,0)	(1,0)	(1,0)	(1,0)	(1,0)	(1,0)	(1,0)	(1,0)	(1,0)	(1,0)	(1,0)	(1,0)	(1,0)	(1,0)	(1,0)	
L1D -483>	(1,0)	(1,0)	(1,0)	(1,0)	(1,0)	(1,0)	(1,0)	(1,0)	(1,0)	(1,0)	(1,0)	(1,0)	(1,0)	(1,0)	(1,0)	(1,0)	
L1D -482>	(1,0)	(1,0)	(1,0)	(1,0)	(1,0)	(1,0)	(1,0)	(1,0)	(1,0)	(1,0)	(1,0)	(1,0)	(1,0)	(1,0)	(1,0)	(1,0)	
L1D -481>	(1,0)	(1,0)	(1,0)	(1,0)	(1,0)	(1,0)	(1,0)	(1,0)	(1,0)	(1,0)	(1,0)	(1,0)	(1,0)	(1,0)	(1,0)	(1,0)	
L1D -480>	(1,0)	(1,0)	(1,0)	(1,0)	(1,0)	(1,0)	(1,0)	(1,0)	(1,0)	(1,0)	(1,0)	(1,0)	(1,0)	(1,0)	(1,0)	(1,0)	
L1D -479>	(1,0)	(1,0)	(1,0)	(1,0)	(1,0)	(1,0)	(1,0)	(1,0)	(1,0)	(1,0)	(1,0)	(1,0)	(1,0)	(1,0)	(1,0)	(1,0)	
L1D -478>	(1,0)	(1,0)	(1,0)	(1,0)	(1,0)	(1,0)	(1,0)	(1,0)	(1,0)	(1,0)	(1,0)	(1,0)	(1,0)	(1,0)	(1,0)	(1,0)	
L1D -477>	(1,0)	(1,0)	(1,0)	(1,0)	(1,0)	(1,0)	(1,0)	(1,0)	(1,0)	(1,0)	(1,0)	(1,0)	(1,0)	(1,0)	(1,0)	(1,0)	
L1D -476>	(1,0)	(1,0)	(1,0)	(1,0)	(1,0)	(1,0)	(1,0)	(1,0)	(1,0)	(1,0)	(1,0)	(1,0)	(1,0)	(1,0)	(1,0)	(1,0)	
L1D -475>	(1,0)	(1,0)	(1,0)	(1,0)	(1,0)	(1,0)	(1,0)	(1,0)	(1,0)	(1,0)	(1,0)	(1,0)	(1,0)	(1,0)	(1,0)	(1,0)	
L1D -474>	(1,0)	(1,0)	(1,0)	(1,0)	(1,0)	(1,0)	(1,0)	(1,0)	(1,0)	(1,0)	(1,0)	(1,0)	(1,0)	(1,0)	(1,0)	(1,0)	
L1D -473>	(1,0)	(1,0)	(1,0)	(1,0)	(1,0)	(1,0)	(1,0)	(1,0)	(1,0)	(1,0)	(1,0)	(1,0)	(1,0)	(1,0)	(1,0)	(1,0)	
L1D -472>	(1,0)	(1,0)	(1,0)	(1,0)	(1,0)	(1,0)	(1,0)	(1,0)	(1,0)	(1,0)	(1,0)	(1,0)	(1,0)	(1,0)	(1,0)	(1,0)	
L1D -471>	(1,0)	(1,0)	(1,0)	(1,0)	(1,0)	(1,0)	(1,0)	(1,0)	(1,0)	(1,0)	(1,0)	(1,0)	(1,0)	(1,0)	(1,0)	(1,0)	
L1D -470>	(1,0)	(1,0)	(1,0)	(1,0)	(1,0)	(1,0)	(1,0)	(1,0)	(1,0)	(1,0)	(1,0)	(1,0)	(1,0)	(1,0)	(1,0)	(1,0)	
L1D -469>	(1,0)	(1,0)	(1,0)	(1,0)	(1,0)	(1,0)	(1,0)	(1,0)	(1,0)	(1,0)	(1,0)	(1,0)	(1,0)	(1,0)	(1,0)	(1,0)	
L1D -468>	(1,0)	(1,0)	(1,0)	(1,0)	(1,0)	(1,0)	(1,0)	(1,0)	(1,0)	(1,0)	(1,0)	(1,0)	(1,0)	(1,0)	(1,0)	(1,0)	
L1D -467>	(1,0)	(1,0)	(1,0)	(1,0)	(1,0)	(1,0)	(1,0)	(1,0)	(1,0)	(1,0)	(1,0)	(1,0)	(1,0)	(1,0)	(1,0)	(1,0)	
L1D -466>	(1,0)	(1,0)	(1,0)	(1,0)	(1,0)	(1,0)	(1,0)	(1,0)	(1,0)	(1,0)	(1,0)	(1,0)	(1,0)	(1,0)	(1,0)	(1,0)	
L1D -465>	(1,0)	(1,0)	(1,0)	(1,0)	(1,0)	(1,0)	(1,0)	(1,0)	(1,0)	(1,0)	(1,0)	(1,0)	(1,0)	(1,0)	(1,0)	(1,0)	
L1D -464>	(1,0)	(1,0)	(1,0)	(1,0)	(1,0)	(1,0)	(1,0)	(1,0)	(1,0)	(1,0)	(1,0)	(1,0)	(1,0)	(1,0)	(1,0)	(1,0)	
L1D -463>	(1,0)	(1,0)	(1,0)	(1,0)	(1,0)	(1,0)	(1,0)	(1,0)	(1,0)	(1,0)	(1,0)	(1,0)	(1,0)	(1,0)	(1,0)	(1,0)	
L1D -462>	(1,0)	(1,0)	(1,0)	(1,0)	(1,0)	(1,0)	(1,0)	(1,0)	(1,0)	(1,0)	(1,0)	(1,0)	(1,0)	(1,0)	(1,0)	(1,0)	
L1D -461>	(1,0)	(1,0)	(1,0)	(1,0)	(1,0)	(1,0)	(1,0)	(1,0)	(1,0)	(1,0)	(1,0)	(1,0)	(1,0)	(1,0)	(1,0)	(1,0)	
L1D -460>	(1,0)	(1,0)	(1,0)	(1,0)	(1,0)	(1,0)	(1,0)	(1,0)	(1,0)	(1,0)	(1,0)	(1,0)	(1,0)	(1,0)	(1,0)	(1,0)	
L1D -459>	(1,0)	(1,0)	(1,0)	(1,0)	(1,0)	(1,0)	(1,0)	(1,0)	(1,0)	(1,0)	(1,0)	(1,0)	(1,0)	(1,0)	(1,0)	(1,0)	
L1D -458>	(1,0)	(1,0)	(1,0)	(1,0)	(1,0)	(1,0)	(1,0)	(1,0)	(1,0)	(1,0)	(1,0)	(1,0)	(1,0)	(1,0)	(1,0)	(1,0)	
L1D -457>	(1,0)	(1,0)	(1,0)	(1,0)	(1,0)	(1,0)	(1,0)	(1,0)	(1,0)	(1,0)	(1,0)	(1,0)	(1,0)	(1,0)	(1,0)	(1,0)	
L1D -456>	(1,0)	(1,0)	(1,0)	(1,0)	(1,0)	(1,0)	(1,0)	(1,0)	(1,0)	(1,0)	(1,0)	(1,0)	(1,0)	(1,0)	(1,0)	(1,0)	
L1D -455>	(1,0)	(1,0)	(1,0)	(1,0)	(1,0)	(1,0)	(1,0)	(1,0)	(1,0)	(1,0)	(1,0)	(1,0)	(1,0)	(1,0)	(1,0)	(1,0)	
L1D -454>	(1,0)	(1,0)	(1,0)	(1,0)	(1,0)	(1,0)	(1,0)	(1,0)	(1,0)	(1,0)	(1,0)	(1,0)	(1,0)	(1,0)	(1,0)	(1,0)	
L1D -453>	(1,0)	(1,0)	(1,0)	(1,0)	(1,0)	(1,0)	(1,0)	(1,0)	(1,0)	(1,0)	(1,0)	(1,0)	(1,0)	(1,0)	(1,0)	(1,0)	
L1D -452>	(1,0)	(1,0)	(1,0)	(1,0)	(1,0)	(1,0)	(1,0)	(1,0)	(1,0)	(1,0)	(1,0)	(1,0)	(1,0)	(1,0)	(1,0)	(1,0)	
L1D -451>	(1,0)	(1,0)	(1,0)	(1,0)	(1,0)	(1,0)	(1,0)	(1,0)	(1,0)	(1,0)	(1,0)	(1,0)	(1,0)	(1,0)	(1,0)	(1,0)	
L1D -450>	(1,0)	(1,0)	(1,0)	(1,0)	(1,0)	(1,0)	(1,0)	(1,0)	(1,0)	(1,0)	(1,0)	(1,0)	(1,0)	(1,0)	(1,0)	(1,0)	
L1D -449>	(1,0)	(1,0)	(1,0)	(1,0)	(1,0)	(1,0)	(1,0)	(1,0)	(1,0)	(1,0)	(1,0)	(1,0)	(1,0)	(1,0)	(1,0)	(1,0)	
L1D -448>	(1,0)	(1,0)	(1,0)	(1,0)	(1,0)	(1,0)	(1,0)	(1,0)	(1,0)	(1,0)	(1,0)	(1,0)	(1,0)	(1,0)	(1,0)	(1,0)	
L1D -447>	(1,0)	(1,0)	(1,0)	(1,0)	(1,0)	(1,0)	(1,0)	(1,0)	(1,0)	(1,0)	(1,0)	(1,0)	(1,0)	(1,0)	(1,0)	(1,0)	
L1D -446>	(1,0)	(1,0)	(1,0)	(1,0)	(1,0)	(1,0)	(1,0)	(1,0)	(1,0)	(1,0)	(1,0)	(1,0)	(1,0)	(1,0)	(1,0)	(1,0)	
L1D -445>	(1,0)	(1,0)	(1,0)	(1,0)	(1,0)	(1,0)	(1,0)	(1,0)	(1,0)	(1,0)	(1,0)	(1,0)	(1,0)	(1,0)	(1,0)	(1,0)	
L1D -444>	(1,0)	(1,0)	(1,0)	(1,0)	(1,0)	(1,0)	(1,0)	(1,0)	(1,0)	(1,0)	(1,0)	(1,0)	(1,0)	(1,0)	(1,0)	(1,0)	
L1D -443>	(1,0)	(1,0)	(1,0)	(1,0)	(1,0)	(1,0)	(1,0)	(1,0)	(1,0)	(1,0)	(1,0)	(1,0)	(1,0)	(1,0)	(1,0)	(1,0)	
L1D -442>	(1,0)	(1,0)	(1,0)	(1,0)	(1,0)	(1,0)	(1,0)	(1,0)	(1,0)	(1,0)	(1,0)	(1,0)	(1,0)	(1,0)	(1,0)	(1,0)	
L1D -441>	(1,0)	(1,0)	(1,0)	(1,0)	(1,0)	(1,0)	(1,0)	(1,0)	(1,0)	(1,0)	(1,0)	(1,0)	(1,0)	(1,0)	(1,0)	(1,0)	
L1D -440>	(1,0)	(1,0)	(1,0)	(1,0)	(1,0)	(1,0)	(1,0)	(1,0)	(1,0)	(1,0)	(1,0)	(1,0)	(1,0)	(1,0)	(1,0)	(1,0)	
L1D -439>	(1,0)	(1,0)	(1,0)	(1,0)	(1,0)	(1,0)	(1,0)	(1,0)	(1,0)	(1,0)	(1,0)	(1,0)	(1,0)	(1,0)	(1,0)	(1,0)	
L1D -438>	(1,0)	(1,0)	(1,0)	(1,0)	(1,0)	(1,0)	(1,0)	(1,0)	(1,0)	(1,0)	(1,0)	(1,0)	(1,0)	(1,0)	(1,0)	(1,0)	
L1D -437>	(1,0)	(1,0)	(1,0)	(1,0)	(1,0)	(1,0)	(1,0)	(1,0)	(1,0)	(1,0)	(1,0)	(1,0)	(1,0)	(1,0)	(1,0)	(1,0)	
L1D -436>	(1,0)	(1,0)	(1,0)	(1,0)	(1,0)	(1,0)	(1,0)	(1,0)	(1,0)	(1,0)	(1,0)	(1,0)	(1,0)	(1,0)	(1,0)	(1,0)	
L1D -435>	(1,0)	(1,0)	(1,0)	(1,0)	(1,0)	(1,0)	(1,0)	(1,0)	(1,0)	(1,0)	(1,0)	(1,0)	(1,0)	(1,0)	(1,0)	(1,0)	
L1D -434>	(1,0)	(1,0)	(1,0)	(1,0)	(1,0)	(1,0)	(1,0)	(1,0)	(1,0)	(1,0)	(1,0)	(1,0)	(1,0)	(1,0)	(1,0)	(1,0)	
L1D -433>	(1,0)	(1,0)	(1,0)	(1,0)	(1,0)	(1,0)	(1,0)	(1,0)	(1,0)	(1,0)	(1,0)	(1,0)	(1,0)	(1,0)	(1,0)	(1,0)	
L1D -432>	(1,0)	(1,0)	(1,0)	(1,0)	(1,0)	(1,0)	(1,0)	(1,0)	(1,0)	(1,0)	(1,0)	(1,0)	(1,0)	(1,0)	(1,0)	(1,0)	
L1D -431>	(1,0)	(1,0)	(1,0)	(1,0)	(1,0)	(1,0)	(1,0)	(1,0)	(1,0)	(1,0)	(1,0)	(1,0)	(1,0)	(1,0)	(1,0)	(1,0)	
L1D -430>	(1,0)	(1,0)	(1,0)	(1,0)	(1,0)	(1,0)	(1,0)	(1,0)	(1,0)	(1,0)	(1,0)	(1,0)	(1,0)	(1,0)	(1,0)	(1,0)	
L1D -429>	(1,0)	(1,0)	(1,0)	(1,0)	(1,0)	(1,0)	(1,0)	(1,0)	(1,0)	(1,0)	(1,0)	(1,0)	(1,0)	(1,0)	(1,0)	(1,0)	
L1D -428>	(1,0)	(1,0)	(1,0)	(1,0)	(1,0)	(1,0)	(1,0)	(1,0)	(1,0)	(1,0)	(1,0)	(1,0)	(1,0)	(1,0)	(1,0)	(1,0)	
L1D -427>	(1,0)	(1,0)	(1,0)	(1,0)	(1,0)	(1,0)	(1,0)	(1,0)	(1,0)	(1,0)	(1,0)	(1,0)	(1,0)	(1,0)	(1,0)	(1,0)	
L1D -426>	(1,0)	(1,0)	(1,0)	(1,0)	(1,0)	(1,0)	(1,0)	(1,0)	(1,0)	(1,0)	(1,0)	(1,0)	(1,0)	(1,0)	(1,0)	(1,0)	
L1D -425>	(1,0)	(1,0)	(1,0)	(1,0)	(1,0)	(1,0)	(1,0)	(1,0)	(1,0)	(1,0)	(1,0)	(1,0)	(1,0)	(1,0)	(1,0)	(1,0)	
L1D -424>	(1,0)	(1,0)	(1,0)	(1,0)	(1,0)	(1,0)	(1,0)	(1,0)	(1,0)	(1,0)	(1,0)	(1,0)	(1,0)	(1,0)	(1,0)	(1,0)	
L1D -423>	(1,0)	(1,0)	(1,0)	(1,0)	(1,0)	(1,0)	(1,0)	(1,0)	(1,0)	(1,0)	(1,0)	(1,0)	(1,0)	(1,0)	(1,0)	(1,0)	
L1D -422>	(1,0)	(1,0)	(1,0)	(1,0)	(1,0)	(1,0)	(1,0)	(1,0)	(1,0)	(1,0)	(1,0)	(1,0)	(1,0)	(1,0)	(1,0)	(1,0)	
L1D -421>	(1,0)	(1,0)	(1,0)	(1,0)	(1,0)	(1,0)	(1,0)	(1,0)	(1,0)	(1,0)	(1,0)	(1,0)	(1,0)	(1,0)	(1,0)	(1,0)	
L1D -420>	(1,0)	(1,0)	(1,0)	(1,0)	(1,0)	(1,0)	(1,0)	(1,0)	(1,0)	(1,0)	(1,0)	(1,0)	(1,0)	(1,0)	(1,0)	(1,0)	
L1D -419>	(1,0)	(1,0)	(1,0)	(1,0)	(1,0)	(1,0)	(1,0)	(1,0)	(1,0)	(1,0)	(1,0)	(1,0)	(1,0)	(1,0)	(1,0)	(1,0)	
L1D -418>	(1,0)	(1,0)	(1,0)	(1,0)	(1,0)	(1,0)	(1,0)	(1,0)	(1,0)	(1,0)	(1,0)	(1,0)	(1,0)	(1,0)	(1,0)	(1,0)	
L1D -417>	(1,0)	(1,0)	(1,0)	(1,0)	(1,0)	(1,0)	(1,0)	(1,0)	(1,0)	(1,0)	(1,0)	(1,0)	(1,0)	(1,0)	(1,0)	(1,0)	
L1D -416>	(1,0)	(1,0)	(1,0)	(1,0)	(1,0)	(1,0)	(1,0)	(1,0)	(1,0)	(1,0)	(1,0)	(1,0)	(1,0)	(1,0)	(1,0)	(1,0)	
L1D -415>	(1,0)	(1,0)	(1,0)	(1,0)	(1,0)	(1,0)	(1,0)	(1,0)	(1,0)	(1,0)	(1,0)	(1,0)	(1,0)	(1,0)	(1,0)	(1,0)	
L1D -414>	(1,0)	(1,0)	(1,0)	(1,0)	(1,0)	(1,0)	(1,0)	(1,0)	(1,0)	(1,0)	(1,0)	(1,0)	(1,0)	(1,0)	(1,0)	(1,0)	
L1D -413>	(1,0)	(1,0)	(1,0)	(1,0)	(1,0)	(1,0)	(1,0)	(1,0)	(1,0)	(1,0)	(1,0)	(1,0)	(1,0)	(1,0)	(1,0)	(1,0)	
L1D -412>	(1,0)	(1,0)	(1,0)	(1,0)	(1,0)	(1,0)	(1,0)	(1,0)	(1,0)	(1,0)	(1,0)	(1,0)	(1,0)	(1,0)	(1,0)	(1,0)	
L1D -411>	(1,0)	(1,0)	(1,0)	(1,0)	(1,0)	(1,0)	(1,0)	(1,0)	(1,0)	(1,0)	(1,0)	(1,0)	(1,0)	(1,0)	(1,0)	(1,0)	
L1D -410>	(1,0)	(1,0)	(1,0)	(1,0)	(1,0)	(1,0)	(1,0)	(1,0)	(1,0)	(1,0)	(1,0)	(1,0)	(1,0)	(1,0)	(1,0)	(1,0)	
L1D -409>	(1,0)	(1,0)	(1,0)	(1,0)	(1,0)	(1,0)	(1,0)	(1,0)	(1,0)	(1,0)	(1,0)	(1,0)	(1,0)	(1,0)	(1,0)	(1,0)	
L1D -408>	(1,0)	(1,0)	(1,0)	(1,0)	(1,0)	(1,0)	(1,0)	(1,0)	(1,0)	(1,0)	(1,0)	(1,0)	(1,0)	(1,0)	(1,0)	(1,0)	
L1D -407>	(1,0)	(1,0)	(1,0)	(1,0)	(1,0)	(1,0)	(1,0)	(1,0)	(1,0)	(1,0)	(1,0)	(1,0)	(1,0)	(1,0)	(1,0)	(1,0)	
L1D -406>	(1,0)	(1,0)	(1,0)	(1,0)	(1,0)	(1,0)	(1,0)	(1,0)	(1,0)	(1,0)	(1,0)	(1,0)	(1,0)	(1,0)	(1,0)	(1,0)	
L1D -405>	(1,0)	(1,0)	(1,0)	(1,0)	(1,0)	(1,0)	(1,0)	(1,0)	(1,0)	(1,0)	(1,0)	(1,0)	(1,0)	(1,0)	(1,0)	(1,0)	
L1D -404>	(1,0)	(1,0)	(1,0)	(1,0)	(1,0)	(1,0)	(1,0)	(1,0)	(1,0)	(1,0)	(1,0)	(1,0)	(1,0)	(1,0)	(1,0)	(1,0)	
L1D -403>	(1,0)	(1,0)	(1,0)	(1,0)	(1,0)	(1,0)	(1,0)	(1,0)	(1,0)	(1,0)	(1,0)	(1,0)	(1,0)	(1,0)	(1,0)	(1,0)	
L1D -402>	(1,0)	(1,0)	(1,0)	(1,0)	(1,0)	(1,0)	(1,0)	(1,0)	(1,0)	(1,0)	(1,0)	(1,0)	(1,0)	(1,0)	(1,0)	(1,0)	
L1D -401>	(1,0)	(1,0)	(1,0)	(1,0)	(1,0)	(1,0)	(1,0)	(1,0)	(1,0)	(1,0)	(1,0)	(1,0)	(1,0)	(1,0)	(1,0)	(1,0)	
L1D -400>	(1,0)	(1,0)	(1,0)	(1,0)	(1,0)	(1,0)	(1,0)	(1,0)	(1,0)	(1,0)	(1,0)	(1,0)	(1,0)	(1,0)	(1,0)	(1,0)	
L1D -399>	(1,0)	(1,0)	(1,0)	(1,0)	(1,0)	(1,0)	(1,0)	(1,0)	(1,0)	(1,0)	(1,0)	(1,0)	(1,0)	(1,0)	(1,0)	(1,0)	
L1D -398>	(1,0)	(1,0)	(1,0)	(1,0)	(1,0)	(1,0)	(1,0)	(1,0)	(1,0)	(1,0)	(1,0)	(1,0)	(1,0)	(1,0)	(1,0)	(1,0)	
L1D -397>	(1,0)	(1,0)	(1,0)	(1,0)	(1,0)	(1,0)	(1,0)	(1,0)	(1,0)	(1,0)	(1,0)	(1,0)	(1,0)	(1,0)	(1,0)	(1,0)	
L1D -396>	(1,0)	(1,0)	(1,0)	(1,0)	(1,0)	(1,0)	(1,0)	(1,0)	(1,0)	(1,0)	(1,0)	(1,0)	(1,0)	(1,0)	(1,0)	(1,0)	
L1D -395>	(1,0)	(1,0)	(1,0)	(1,0)	(1,0)	(1,0)	(1,0)	(1,0)	(1,0)	(1,0)	(1,0)	(1,0)	(1,0)	(1,0)	(1,0)	(1,0)	
L1D -394>	(1,0)	(1,0)	(1,0)	(1,0)	(1,0)	(1,0)	(1,0)	(1,0)	(1,0)	(1,0)	(1,0)	(1,0)	(1,0)	(1,0)	(1,0)	(1,0)	
L1D -393>	(1,0)	(1,0)	(1,0)	(1,0)	(1,0)	(1,0)	(1,0)	(1,0)	(1,0)	(1,0)	(1,0)	(1,0)	(1,0)	(1,0)	(1,0)	(1,0)	
L1D -392>	(1,0)	(1,0)	(1,0)	(1,0)	(1,0)	(1,0)	(1,0)	(1,0)	(1,0)	(1,0)	(1,0)	(1,0)	(1,0)	(1,0)	(1,0)	(1,0)	
L1D -391>	(1,0)	(1,0)	(1,0)	(1,0)	(1,0)	(1,0)	(1,0)	(1,0)	(1,0)	(1,0)	(1,0)	(1,0)	(1,0)	(1,0)	(1,0)	(1,0)	
L1D -390>	(1,0)	(1,0)	(1,0)	(1,0)	(1,0)	(1,0)	(1,0)	(1,0)	(1,0)	(1,0)	(1,0)	(1,0)	(1,0)	(1,0)	(1,0)	(1,0)	
L1D -389>	(1,0)	(1,0)	(1,0)	(1,0)	(1,0)	(1,0)	(1,0)	(1,0)	(1,0)	(1,0)	(1,0)	(1,0)	(1,0)	(1,0)	(1,0)	(1,0)	
L1D -388>	(1,0)	(1,0)	(1,0)	(1,0)	(1,0)	(1,0)	(1,0)	(1,0)	(1,0)	(1,0)	(1,0)	(1,0)	(1,0)	(1,0)	(1,0)	(1,0)	
L1D -387>	(1,0)	(1,0)	(1,0)	(1,0)	(1,0)	(1,0)	(1,0)	(1,0)	(1,0)	(1,0)	(1,0)	(1,0)	(1,0)	(1,0)	(1,0)	(1,0)	
L1D -386>	(1,0)	(1,0)	(1,0)	(1,0)	(1,0)	(1,0)	(1,0)	(1,0)	(1,0)	(1,0)	(1,0)	(1,0)	(1,0)	(1,0)	(1,0)	(1,0)	
L1D -385>	(1,0)	(1,0)	(1,0)	(1,0)	(1,0)	(1,0)	(1,0)	(1,0)	(1,0)	(1,0)	(1,0)	(1,0)	(1,0)	(1,0)	(1,0)	(1,0)	
L1D -384>	(1,0)	(1,0)	(1,0)	(1,0)	(1,0)	(1,0)	(1,0)	(1,0)	(1,0)	(1,0)	(1,0)	(1,0)	(1,0)	(1,0)	(1,0)	(1,0)	
L1D -383>	(1,0)	(1,0)	(1,0)	(1,0)	(1,0)	(1,0)	(1,0)	(1,0)	(1,0)	(1,0)	(1,0)	(1,0)	(1,0)	(1,0)	(1,0)	(1,0)	
L1D -382>	(1,0)	(1,0)	(1,0)	(1,0)	(1,0)	(1,0)	(1,0)	(1,0)	(1,0)	(1,0)	(1,0)	(1,0)	(1,0)	(1,0)	(1,0)	(1,0)	
L1D -381>	(1,0)	(1,0)	(1,0)	(1,0)	(1,0)	(1,0)	(1,0)	(1,0)	(1,0)	(1,0)	(1,0)	(1,0)	(1,0)	(1,0)	(1,0)	(1,0)	
L1D -380>	(1,0)	(1,0)	(1,0)	(1,0)	(1,0)	(1,0)	(1,0)	(1,0)	(1,0)	(1,0)	(1,0)	(1,0)	(1,0)	(1,0)	(1,0)	(1,0)	
L1D -379>	(1,0)	(1,0)	(1,0)	(1,0)	(1,0)	(1,0)	(1,0)	(1,0)	(1,0)	(1,0)	(1,0)	(1,0)	(1,0)	(1,0)	(1,0)	(1,0)	
L1D -378>	(1,0)	(1,0)	(1,0)	(1,0)	(1,0)	(1,0)	(1,0)	(1,0)	(1,0)	(1,0)	(1,0)	(1,0)	(1,0)	(1,0)	(1,0)	(1,0)	
L1D -377>	(1,0)	(1,0)	(1,0)	(1,0)	(1,0)	(1,0)	(1,0)	(1,0)	(1,0)	(1,0)	(1,0)	(1,0)	(1,0)	(1,0)	(1,0)	(1,0)	
L1D -376>	(1,0)	(1,0)	(1,0)	(1,0)	(1,0)	(1,0)	(1,0)	(1,0)	(1,0)	(1,0)	(1,0)	(1,0)	(1,0)	(1,0)	(1,0)	(1,0)	
L1D -375>	(1,0)	(1,0)	(1,0)	(1,0)	(1,0)	(1,0)	(1,0)	(1,0)	(1,0)	(1,0)	(1,0)	(1,0)	(1,0)	(1,0)	(1,0)	(1,0)	
L1D -374>	(1,0)	(1,0)	(1,0)	(1,0)	(1,0)	(1,0)	(1,0)	(1,0)	(1,0)	(1,0)	(1,0)	(1,0)	(1,0)	(1,0)	(1,0)	(1,0)	
L1D -373>	(1,0)	(1,0)	(1,0)	(1,0)	(1,0)	(1,0)	(1,0)	(1,0)	(1,0)	(1,0)	(1,0)	(1,0)	(1,0)	(1,0)	(1,0)	(1,0)	
L1D -372>	(1,0)	(1,0)	(1,0)	(1,0)	(1,0)	(1,0)	(1,0)	(1,0)	(1,0)	(1,0)	(1,0)	(1,0)	(1,0)	(1,0)	(1,0)	(1,0)	
L1D -371>	(1,0)	(1,0)	(1,0)	(1,0)	(1,0)	(1,0)	(1,0)	(1,0)	(1,0)	(1,0)	(1,0)	(1,0)	(1,0)	(1,0)	(1,0)	(1,0)	
L1D -370>	(1,0)	(1,0)	(1,0)	(1,0)	(1,0)	(1,0)	(1,0)	(1,0)	(1,0)	(1,0)	(1,0)	(1,0)	(1,0)	(1,0)	(1,0)	(1,0)	
L1D -369>	(1,0)	(1,0)	(1,0)	(1,0)	(1,0)	(1,0)	(1,0)	(1,0)	(1,0)	(1,0)	(1,0)	(1,0)	(1,0)	(1,0)	(1,0)	(1,0)	
L1D -368>	(1,0)	(1,0)	(1,0)	(1,0)	(1,0)	(1,0)	(1,0)	(1,0)	(1,0)	(1,0)	(1,0)	(1,0)	(1,0)	(1,0)	(1,0)	(1,0)	
L1D -367>	(1,0)	(1,0)	(1,0)	(1,0)	(1,0)	(1,0)	(1,0)	(1,0)	(1,0)	(1,0)	(1,0)	(1,0)	(1,0)	(1,0)	(1,0)	(1,0)	
L1D -366>	(1,0)	(1,0)	(1,0)	(1,0)	(1,0)	(1,0)	(1,0)	(1,0)	(1,0)	(1,0)	(1,0)	(1,0)	(1,0)	(1,0)	(1,0)	(1,0)	
L1D -365>	(1,0)	(1,0)	(1,0)	(1,0)	(1,0)	(1,0)	(1,0)	(1,0)	(1,0)	(1,0)	(1,0)	(1,0)	(1,0)	(1,0)	(1,0)	(1,0)	
L1D -364>	(1,0)	(1,0)	(1,0)	(1,0)	(1,0)	(1,0)	(1,0)	(1,0)	(1,0)	(1,0)	(1,0)	(1,0)	(1,0)	(1,0)	(1,0)	(1,0)	
L1D -363>	(1,0)	(1,0)	(1,0)	(1,0)	(1,0)	(1,0)	(1,0)	(1,0)	(1,0)	(1,0)	(1,0)	(1,0)	(1,0)	(1,0)	(1,0)	(1,0)	
L1D -362>	(1,0)	(1,0)	(1,0)	(1,0)	(1,0)	(1,0)	(1,0)	(1,0)	(1,0)	(1,0)	(1,0)	(1,0)	(1,0)	(1,0)	(1,0)	(1,0)	
L1D -361>	(1,0)	(1,0)	(1,0)	(1,0)	(1,0)	(1,0)	(1,0)	(1,0)	(1,0)	(1,0)	(1,0)	(1,0)	(1,0)	(1,0)	(1,0)	(1,0)	
L1D -360>	(1,0)	(1,0)	(1,0)	(1,0)	(1,0)	(1,0)	(1,0)	(1,0)	(1,0)	(1,0)	(1,0)	(1,0)	(1,0)	(1,0)	(1,0)	(1,0)	
L1D -359>	(1,0)	(1,0)	(1,0)	(1,0)	(1,0)	(1,0)	(1,0)	(1,0)	(1,0)	(1,0)	(1,0)	(1,0)	(1,0)	(1,0)	(1,0)	(1,0)	
L1D -358>	(130,1)	(354,2)	(1,0)	(1,0)	(1,0)	(1,0)	(1,0)	(1,0)	(1,0)	(1,0)	(1,0)	(1,0)	(1,0)	(1,0)	(1,0)	(1,0)	
L1D -357>	(131,2)	(356,2)	(1,0)	(1,0)	(1,0)	(1,0)	(1,0)	(1,0)	(1,0)	(1,0)	(1,0)	(1,0)	(1,0)	(1,0)	(1,0)	(1,0)	
L1D -356>	(1,0)	(1,0)	(1,0)	(1,0)	(1,0)	(1,0)	(1,0)	(1,0)	(1,0)	(1,0)	(1,0)	(1,0)	(1,0)	(1,0)	(1,0)	(1,0)	
L1D -355>	(352,9)	(1,0)	(1,0)	(1,0)	(1,0)	(1,0)	(1,0)	(1,0)	(1,0)	(1,0)	(1,0)	(1,0)	(1,0)	(1,0)	(1,0)	(1,0)	
L1D -354>	(1,0)	(1,0)	(1,0)	(1,0)	(1,0)	(1,0)	(1,0)	(1,0)	(1,0)	(1,0)	(1,0)	(1,0)	(1,0)	(1,0)	(1,0)	(1,0)	
L1D -353>	(350,2)	(352,1)	(1,0)	(1,0)	(1,0)	(1,0)	(1,0)	(1,0)	(1,0)	(1,0)	(1,0)	(1,0)	(1,0)	(1,0)	(1,0)	(1,0)	
L1D -352>	(351,3)	(1,0)	(1,0)	(1,0)	(1,0)	(1,0)	(1,0)	(1,0)	(1,0)	(1,0)	(1,0)	(1,0)	(1,0)	(1,0)	(1,0)	(1,0)	
L1D -351>	(350,10)	(349,10)	(341,1)	(1,0)	(1,0)	(1,0)	(1,0)	(1,0)	(1,0)	(1,0)	(1,0)	(1,0)	(1,0)	(1,0)	(1,0)	(1,0)	
L1D -350>	(339,10)	(337,1)	(1,0)	(1,0)	(1,0)	(1,0)	(1,0)	(1,0)	(1,0)	(1,0)	(1,0)	(1,0)	(1,0)	(1,0)	(1,0)	(1,0)	
L1D -349>	(348,11)	(1,0)	(1,0)	(1,0)	(1,0)	(1,0)	(1,0)	(1,0)	(1,0)	(1,0)	(1,0)	(1,0)	(1,0)	(1,0)	(1,0)	(1,0)	
L1D -348>	(345,1)	(347,3)	(329,2)	(1,0)	(1,0)	(1,0)	(1,0)	(1,0)	(1,0)	(1,0)	(1,0)	(1,0)	(1,0)	(1,0)	(1,0)	(1,0)	
L1D -347>	(333,10)	(345,2)	(346,1)	(1,0)	(1,0)	(1,0)	(1,0)	(1,0)	(1,0)	(1,0)	(1,0)	(1,0)	(1,0)	(1,0)	(1,0)	(1,0)	
L1D -346>	(331,8)	(329,3)	(345,3)	(120,1)	(1,0)	(1,0)	(1,0)	(1,0)	(1,0)	(1,0)	(1,0)	(1,0)	(1,0)	(1,0)	(1,0)	(1,0)	
L1D -345>	(344,2)	(1,0)	(1,0)	(1,0)	(1,0)	(1,0)	(1,0)	(1,0)	(1,0)	(1,0)	(1,0)	(1,0)	(1,0)	(1,0)	(1,0)	(1,0)	
L1D -344>	(1,0)	(1,0)	(1,0)	(1,0)	(1,0)	(1,0)	(1,0)	(1,0)	(1,0)	(1,0)	(1,0)	(1,0)	(1,0)	(1,0)	(1,0)	(1,0)	
L1D -343>	(1,0)	(1,0)	(1,0)	(1,0)	(1,0)	(1,0)	(1,0)	(1,0)	(1,0)	(1,0)	(1,0)	(1,0)	(1,0)	(1,0)	(1,0)	(1,0)	
L1D -342>	(1,0)	(1,0)	(1,0)	(1,0)	(1,0)	(1,0)	(1,0)	(1,0)	(1,0)	(1,0)	(1,0)	(1,0)	(1,0)	(1,0)	(1,0)	(1,0)	
L1D -341>	(1,0)	(1,0)	(1,0)	(1,0)	(1,0)	(1,0)	(1,0)	(1,0)	(1,0)	(1,0)	(1,0)	(1,0)	(1,0)	(1,0)	(1,0)	(1,0)	
L1D -340>	(1,0)	(1,0)	(1,0)	(1,0)	(1,0)	(1,0)	(1,0)	(1,0)	(1,0)	(1,0)	(1,0)	(1,0)	(1,0)	(1,0)	(1,0)	(1,0)	
L1D -339>	(1,0)	(1,0)	(1,0)	(1,0)	(1,0)	(1,0)	(1,0)	(1,0)	(1,0)	(1,0)	(1,0)	(1,0)	(1,0)	(1,0)	(1,0)	(1,0)	
L1D -338>	(1,0)	(1,0)	(1,0)	(1,0)	(1,0)	(1,0)	(1,0)	(1,0)	(1,0)	(1,0)	(1,0)	(1,0)	(1,0)	(1,0)	(1,0)	(1,0)	
L1D -337>	(1,0)	(1,0)	(1,0)	(1,0)	(1,0)	(1,0)	(1,0)	(1,0)	(1,0)	(1,0)	(1,0)	(1,0)	(1,0)	(1,0)	(1,0)	(1,0)	
L1D -336>	(1,0)	(1,0)	(1,0)	(1,0)	(1,0)	(1,0)	(1,0)	(1,0)	(1,0)	(1,0)	(1,0)	(1,0)	(1,0)	(1,0)	(1,0)	(1,0)	
L1D -335>	(1,0)	(1,0)	(1,0)	(1,0)	(1,0)	(1,0)	(1,0)	(1,0)	(1,0)	(1,0)	(1,0)	(1,0)	(1,0)	(1,0)	(1,0)	(1,0)	
L1D -334>	(106,1)	(1,0)	(1,0)	(1,0)	(1,0)	(1,0)	(1,0)	(1,0)	(1,0)	(1,0)	(1,0)	(1,0)	(1,0)	(1,0)	(1,0)	(1,0)	
L1D -333>	(13,4)	(-1,7)	(330,1)	(1,0)	(1,0)	(1,0)	(1,0)	(1,0)	(1,0)	(1,0)	(1,0)	(1,0)	(1,0)	(1,0)	(1,0)	(1,0)	
L1D -332>	(105,1)	(329,3)	(104,8)	(1,0)	(1,0)	(1,0)	(1,0)	(1,0)	(1,0)	(1,0)	(1,0)	(1,0)	(1,0)	(1,0)	(1,0)	(1,0)	
L1D -331>	(328,1)	(1,0)	(1,0)	(1,0)	(1,0)	(1,0)	(1,0)	(1,0)	(1,0)	(1,0)	(1,0)	(1,0)	(1,0)	(1,0)	(1,0)	(1,0)	
L1D -330>	(106,1)	(1,0)	(1,0)	(1,0)	(1,0)	(1,0)	(1,0)	(1,0)	(1,0)	(1,0)	(1,0)	(1,0)	(1,0)	(1,0)	(1,0)	(1,0)	
L1D -329>	(1,0)	(1,0)	(1,0)	(1,0)	(1,0)	(1,0)	(1,0)	(1,0)	(1,0)	(1,0)	(1,0)	(1,0)	(1,0)	(1,0)	(1,0)	(1,0)	
L1D -328>	(1,0)	(1,0)	(1,0)	(1,0)	(1,0)	(1,0)	(1,0)	(1,0)	(1,0)	(1,0)	(1,0)	(1,0)	(1,0)	(1,0)	(1,0)	(1,0)	
L1D -327>	(1,0)	(1,0)	(1,0)	(1,0)	(1,0)	(1,0)	(1,0)	(1,0)	(1,0)	(1,0)	(1,0)	(1,0)	(1,0)	(1,0)	(1,0)	(1,0)	
L1D -326>	(1,0)	(1,0)	(1,0)	(1,0)	(1,0)	(1,0)	(1,0)	(1,0)	(1,0)	(1,0)	(1,0)	(1,0)	(1,0)	(1,0)	(1,0)	(1,0)	
L1D -325>	(1,0)	(1,0)	(1,0)	(1,0)	(1,0)	(1,0)	(1,0)	(1,0)	(1,0)	(1,0)	(1,0)	(1,0)	(1,0)	(1,0)	(1,0)	(1,0)	
L1D -324>	(1,0)	(1,0)	(1,0)	(1,0)	(1,0)	(1,0)	(1,0)	(1,0)	(1,0)	(1,0)	(1,0)	(1,0)	(1,0)	(1,0)	(1,0)	(1,0)	
L1D -323>	(1,0)	(1,0)	(1,0)	(1,0)	(1,0)	(1,0)	(1,0)	(1,0)	(1,0)	(1,0)	(1,0)	(1,0)	(1,0)	(1,0)	(1,0)	(1,0)	
L1D -322>	(1,0)	(1,0)	(1,0)	(1,0)	(1,0)	(1,0)	(1,0)	(1,0)	(1,0)	(1,0)	(1,0)	(1,0)	(1,0)	(1,0)	(1,0)	(1,0)	
L1D -321>	(96,1)	(1,0)	(1,0)	(1,0)	(1,0)	(1,0)	(1,0)	(1,0)	(1,0)	(1,0)	(1,0)	(1,0)	(1,0)	(1,0)	(1,0)	(1,0)	
L1D -320>	(94,19)	(-13,4)	(1,0)	(1,0)	(1,0)	(1,0)	(1,0)	(1,0)	(1,0)	(1,0)	(1,0)	(1,0)	(1,0)	(1,0)	(1,0)	(1,0)	
L1D -319>	(1,0)	(1,0)	(1,0)	(1,0)	(1,0)	(1,0)	(1,0)	(1,0)	(1,0)	(1,0)	(1,0)	(1,0)	(1,0)	(1,0)	(1,0)	(1,0)	
L1D -318>	(1,0)	(1,0)	(1,0)	(1,0)	(1,0)	(1,0)	(1,0)	(1,0)	(1,0)	(1,0)	(1,0)	(1,0)	(1,0)	(1,0)	(1,0)	(1,0)	
L1D -317>	(1,0)	(1,0)	(1,0)	(1,0)	(1,0)	(1,0)	(1,0)	(1,0)	(1,0)	(1,0)	(1,0)	(1,0)	(1,0)	(1,0)	(1,0)	(1,0)	
L1D -316>	(307,11)	(1,0)	(1,0)	(1,0)	(1,0)	(1,0)	(1,0)	(1,0)	(1,0)	(1,0)	(1,0)	(1,0)	(1,0)	(1,0)	(1,0)	(1,0)	
L1D -315>	(314,3)	(293,1)	(1,0)	(1,0)	(1,0)	(1,0)	(1,0)	(1,0)	(1,0)	(1,0)	(1,0)	(1,0)	(1,0)	(1,0)	(1,0)	(1,0)	
L1D -314>	(293,1)	(298,1)	(51,2)	(1,0)	(1,0)	(1,0)	(1,0)	(1,0)	(1,0)	(1,0)	(1,0)	(1,0)	(1,0)	(1,0)	(1,0)	(1,0)	
L1D -313>	(314,30)	(1,0)	(1,0)	(1,0)	(1,0)	(1,0)	(1,0)	(1,0)	(1,0)	(1,0)	(1,0)	(1,0)	(1,0)	(1,0)	(1,0)	(1,0)	
L1D -312>	(310,2)	(311,1)	(1,0)	(1,0)	(1,0)	(1,0)	(1,0)	(1,0)	(1,0)	(1,0)	(1,0)	(1,0)	(1,0)	(1,0)	(1,0)	(1,0)	
L1D -311>	(309,1)	(1,0)	(1,0)	(1,0)	(1,0)	(1,0)	(1,0)	(1,0)	(1,0)	(1,0)	(1,0)	(1,0)	(1,0)	(1,0)	(1,0)	(1,0)	
L1D -310>	(299,2)	(1,0)	(1,0)	(1,0)	(1,0)	(1,0)	(1,0)	(1,0)	(1,0)	(1,0)	(1,0)	(1,0)	(1,0)	(1,0)	(1,0)	(1,0)	
L1D -309>	(308,13)	(307,3)	(1,0)	(1,0)	(1,0)	(1,0)	(1,0)	(1,0)	(1,0)	(1,0)	(1,0)	(1,0)	(1,0)	(1,0)	(1,0)	(1,0)	
L1D -308>	(1,0)	(1,0)	(1,0)	(1,0)	(1,0)	(1,0)	(1,0)	(1,0)	(1,0)	(1,0)	(1,0)	(1,0)	(1,0)	(1,0)	(1,0)	(1,0)	
L1D -307>	(291,1)	(305,4)	(306,1)	(1,0)	(1,0)	(1,0)	(1,0)	(1,0)	(1,0)	(1,0)	(1,0)	(1,0)	(1,0)	(1,0)	(1,0)	(1,0)	
L1D -306>	(291,7)	(304,2)	(305,1)	(1,0)	(1,0)	(1,0)	(1,0)	(1,0)	(1,0)	(1,0)	(1,0)	(1,0)	(1,0)	(1,0)	(1,0)	(1,0)	
L1D -305>	(289,3)	(304,8)	(303,1)	(1,0)	(1,0)	(1,0)	(1,0)	(1,0)	(1,0)	(1,0)	(1,0)	(1,0)	(1,0)	(1,0)	(1,0)	(1,0)	
L1D -304>	(1,0)	(1,0)	(1,0)	(1,0)	(1,0)	(1,0)	(1,0)	(1,0)	(1,0)	(1,0)	(1,0)	(1,0)	(1,0)	(1,0)	(1,0)	(1,0)	
L1D -303>	(1,0)	(1,0)	(1,0)	(1,0)	(1,0)	(1,0)	(1,0)	(1,0)	(1,0)	(1,0)	(1,0)	(1,0)	(1,0)	(1,0)	(1,0)	(1,0)	
L1D -302>	(1,0)	(1,0)	(1,0)	(1,0)	(1,0)	(1,0)	(1,0)	(1,0)	(1,0)	(1,0)	(1,0)	(1,0)	(1,0)	(1,0)	(1,0)	(1,0)	
L1D -301>	(1,0)	(1,0)	(1,0)	(1,0)	(1,0)	(1,0)	(1,0)	(1,0)	(1,0)	(1,0)	(1,0)	(1,0)	(1,0)	(1,0)	(1,0)	(1,0)	
L1D -300>	(1,0)	(1,0)	(1,0)	(1,0)	(1,0)	(1,0)	(1,0)	(1,0)	(1,0)	(1,0)	(1,0)	(1,0)	(1,0)	(1,0)	(1,0)	(1,0)	
L1D -299>	(1,0)	(1,0)	(1,0)	(1,0)	(1,0)	(1,0)	(1,0)	(1,0)	(1,0)	(1,0)	(1,0)	(1,0)	(1,0)	(1,0)	(1,0)	(1,0)	
L1D -298>	(1,0)	(1,0)	(1,0)	(1,0)	(1,0)	(1,0)	(1,0)	(1,0)	(1,0)	(1,0)	(1,0)	(1,0)	(1,0)	(1,0)	(1,0)	(1,0)	
L1D -297>	(1,0)	(1,0)	(1,0)	(1,0)	(1,0)	(1,0)	(1,0)	(1,0)	(1,0)	(1,0)	(1,0)	(1,0)	(1,0)	(1,0)	(1,0)	(1,0)	
L1D -296>	(34,2)	(292,7)	(1,0)	(1,0)	(1,0)	(1,0)	(1,0)	(1,0)	(1,0)	(1,0)	(1,0)	(1,0)	(1,0)	(1,0)	(1,0)	(1,0)	
L1D -295>	(33,4)	(31,8)	(17,1)	(1,0)	(1,0)	(1,0)	(1,0)	(1,0)	(1,0)	(1,0)	(1,0)	(1,0)	(1,0)	(1,0)	(1,0)	(1,0)	
L1D -294>	(32,6)	(30,2)	(291,1)	(295,1)	(31,1)	(288,1)	(1,0)	(1,0)	(1,0)	(1,0)	(1,0)	(1,0)	(1,0)	(1,0)	(1,0)	(1,0)	
L1D -293>	(1,0)	(1,0)	(1,0)	(1,0)	(1,0)	(1,0)	(1,0)	(1,0)	(1,0)	(1,0)	(1,0)	(1,0)	(1,0)	(1,0)	(1,0)	(1,0)	
L1D -292>	(294,3)	(1,0)	(1,0)	(1,0)	(1,0)	(1,0)	(1,0)	(1,0)	(1,0)	(1,0)	(1,0)	(1,0)	(1,0)	(1,0)	(1,0)	(1,0)	
L1D -291>	(29,3)	(294,2)	(31,1)	(1,0)	(1,0)	(1,0)	(1,0)	(1,0)	(1,0)	(1,0)	(1,0)	(1,0)	(1,0)	(1,0)	(1,0)	(1,0)	
L1D -290>	(1,0)	(1,0)	(1,0)	(1,0)	(1,0)	(1,0)	(1,0)	(1,0)	(1,0)	(1,0)	(1,0)	(1,0)	(1,0)	(1,0)	(1,0)	(1,0)	
L1D -289>	(27,1)	(1,0)	(1,0)	(1,0)	(1,0)	(1,0)	(1,0)	(1,0)	(1,0)	(1,0)	(1,0)	(1,0)	(1,0)	(1,0)	(1,0)	(1,0)	
L1D -288>	(1,0)	(1,0)	(1,0)	(1,0)	(1,0)	(1,0)	(1,0)	(1,0)	(1,0)	(1,0)	(1,0)	(1,0)	(1,0)	(1,0)	(1,0)	(1,0)	
L1D -287>	(1,0)	(1,0)	(1,0)	(1,0)	(1,0)	(1,0)	(1,0)	(1,0)	(1,0)	(1,0)	(1,0)	(1,0)	(1,0)	(1,0)	(1,0)	(1,0)	
L1D -286>	(24,8)	(1,0)	(1,0)	(1,0)	(1,0)	(1,0)	(1,0)	(1,0)	(1,0)	(1,0)	(1,0)	(1,0)	(1,0)	(1,0)	(1,0)	(1,0)	
L1D -285>	(23,1)	(1,0)	(1,0)	(1,0)	(1,0)	(1,0)	(1,0)	(1,0)	(1,0)	(1,0)	(1,0)	(1,0)	(1,0)	(1,0)	(1,0)	(1,0)	
L1D -284>	(1,0)	(1,0)	(1,0)	(1,0)	(1,0)	(1,0)	(1,0)	(1,0)	(1,0)	(1,0)	(1,0)	(1,0)	(1,0)	(1,0)	(1,0)	(1,0)	
L1D -283>	(1,0)	(1,0)	(1,0)	(1,0)	(1,0)	(1,0)	(1,0)	(1,0)	(1,0)	(1,0)	(1,0)	(1,0)	(1,0)	(1,0)	(1,0)	(1,0)	
L1D -282>	(7,11)	(1,0)	(1,0)	(1,0)	(1,0)	(1,0)	(1,0)	(1,0)	(1,0)	(1,0)	(1,0)	(1,0)	(1,0)	(1,0)	(1,0)	(1,0)	
L1D -281>	(19,8)	(1,0)	(1,0)	(1,0)	(1,0)	(1,0)	(1,0)	(1,0)	(1,0)	(1,0)	(1,0)	(1,0)	(1,0)	(1,0)	(1,0)	(1,0)	
L1D -280>	(18,6)	(1,0)	(1,0)	(1,0)	(1,0)	(1,0)	(1,0)	(1,0)	(1,0)	(1,0)	(1,0)	(1,0)	(1,0)	(1,0)	(1,0)	(1,0)	
L1D -279>	(1,0)	(1,0)	(1,0)	(1,0)	(1,0)	(1,0)	(1,0)	(1,0)	(1,0)	(1,0)	(1,0)	(1,0)	(1,0)	(1,0)	(1,0)	(1,0)	
L1D -278>	(16,14)	(275,4)	(5,2)	(-17,2)	(264,3)	(239,3)	(1,0)	(1,0)	(1,0)	(1,0)	(1,0)	(1,0)	(1,0)	(1,0)	(1,0)	(1,0)	
L1D -277>	(15,8)	(14,8)	(1,0)	(1,0)	(1,0)	(1,0)	(1,0)	(1,0)	(1,0)	(1,0)	(1,0)	(1,0)	(1,0)	(1,0)	(1,0)	(1,0)	
L1D -276>	(14,10)	(275,1)	(1,0)	(1,0)	(1,0)	(1,0)	(1,0)	(1,0)	(1,0)	(1,0)	(1,0)	(1,0)	(1,0)	(1,0)	(1,0)	(1,0)	
L1D -275>	(14,11)	(13,3)	(12,1)	(1,0)	(1,0)	(1,0)	(1,0)	(1,0)	(1,0)	(1,0)	(1,0)	(1,0)	(1,0)	(1,0)	(1,0)	(1,0)	
L1D -274>	(12,8)	(1,0)	(1,0)	(1,0)	(1,0)	(1,0)	(1,0)	(1,0)	(1,0)	(1,0)	(1,0)	(1,0)	(1,0)	(1,0)	(1,0)	(1,0)	
L1D -273>	(11,22)	(12,2)	(1,0)	(1,0)	(1,0)	(1,0)	(1,0)	(1,0)	(1,0)	(1,0)	(1,0)	(1,0)	(1,0)	(1,0)	(1,0)	(1,0)	
L1D -272>	(10,1)	(11,3)	(1,0)	(1,0)	(1,0)	(1,0)	(1,0)	(1,0)	(1,0)	(1,0)	(1,0)	(1,0)	(1,0)	(1,0)	(1,0)	(1,0)	
L1D -271>	(10,14)	(9,3)	(1,0)	(1,0)	(1,0)	(1,0)	(1,0)	(1,0)	(1,0)	(1,0)	(1,0)	(1,0)	(1,0)	(1,0)	(1,0)	(1,0)	
L1D -270>	(8,19)	(9,2)	(1,0)	(1,0)	(1,0)	(1,0)	(1,0)	(1,0)	(1,0)	(1,0)	(1,0)	(1,0)	(1,0)	(1,0)	(1,0)	(1,0)	
L1D -269>	(7,5)	(263,1)	(271,1)	(270,7)	(9,1)	(1,0)	(1,0)	(1,0)	(1,0)	(1,0)	(1,0)	(1,0)	(1,0)	(1,0)	(1,0)	(1,0)	
L1D -268>	(6,12)	(2,21)	(270,18)	(263,2)	(1,3)	(4,1)	(271,1)	(1,0)	(1,0)	(1,0)	(1,0)	(1,0)	(1,0)	(1,0)	(1,0)	(1,0)	
L1D -267>	(298,1)	(3,5)	(6,14)	(5,13)	(2,2)	(270,5)	(269,1)	(268,1)	(263,1)	(1,0)	(1,0)	(1,0)	(1,0)	(1,0)	(1,0)	(1,0)	
L1D -266>	(270,4)	(4,14)	(269,2)	(258,12)	(268,2)	(261,1)	(2,18)	(259,2)	(1,2)	(264,1)	(260,1)	(1,0)	(1,0)	(1,0)	(1,0)	(1,0)	
L1D -265>	(268,6)	(3,8)	(247,1)	(261,9)	(2,18)	(259,14)	(6,1)	(263,4)	(267,1)	(269,2)	(264,3)	(1,5)	(-2,1)	(260,1)	(4,1)	(266,1)	
L1D -264>	(265,6)	(1,8)	(266,16)	(2,1)	(261,5)	(260,24)	(-48,7)	(224,12)	(-29,1)	(3,7)	(4,8)	(254,4)	(263,1)	(259,2)	(267,2)	(262,2)	
L1D -263>	(1,10)	(264,21)	(265,2)	(-1,15)	(261,5)	(256,11)	(263,1)	(260,19)	(273,2)	(-6,7)	(266,19)	(-32,1)	(262,3)	(259,1)	(258,1)	(-47,1)	
L1D -262>	(261,38)	(2,45)	(263,124)	(260,28)	(264,57)	(265,17)	(258,24)	(-33,1)	(-1,9)	(1,43)	(259,21)	(253,12)	(280,5)	(279,8)	(274,6)	(11,4)	
L1D -261>	(264,36)	(271,4)	(-3,17)	(274,1)	(263,27)	(1,37)	(-50,8)	(259,15)	(260,9)	(258,17)	(280,1)	(288,3)	(-47,2)	(-48,1)	(-32,1)	(285,1)	
L1D -260>	(273,1)	(251,1)	(-4,21)	(284,3)	(-55,11)	(270,12)	(-32,3)	(258,1)	(5,1)	(262,5)	(259,4)	(263,2)	(-9,1)	(267,1)	(1,0)	(1,0)	
L1D -259>	(-5,2)	(263,8)	(294,3)	(1,0)	(1,0)	(1,0)	(1,0)	(1,0)	(1,0)	(1,0)	(1,0)	(1,0)	(1,0)	(1,0)	(1,0)	(1,0)	
L1D -258>	(-4,3)	(274,3)	(298,2)	(261,1)	(1,0)	(1,0)	(1,0)	(1,0)	(1,0)	(1,0)	(1,0)	(1,0)	(1,0)	(1,0)	(1,0)	(1,0)	
L1D -257>	(259,16)	(261,2)	(1,0)	(1,0)	(1,0)	(1,0)	(1,0)	(1,0)	(1,0)	(1,0)	(1,0)	(1,0)	(1,0)	(1,0)	(1,0)	(1,0)	
L1D -256>	(274,3)	(-5,1)	(261,3)	(1,0)	(1,0)	(1,0)	(1,0)	(1,0)	(1,0)	(1,0)	(1,0)	(1,0)	(1,0)	(1,0)	(1,0)	(1,0)	
L1D -255>	(-7,8)	(-6,1)	(-5,2)	(1,0)	(1,0)	(1,0)	(1,0)	(1,0)	(1,0)	(1,0)	(1,0)	(1,0)	(1,0)	(1,0)	(1,0)	(1,0)	
L1D -254>	(-7,1)	(1,0)	(1,0)	(1,0)	(1,0)	(1,0)	(1,0)	(1,0)	(1,0)	(1,0)	(1,0)	(1,0)	(1,0)	(1,0)	(1,0)	(1,0)	
L1D -253>	(1,0)	(1,0)	(1,0)	(1,0)	(1,0)	(1,0)	(1,0)	(1,0)	(1,0)	(1,0)	(1,0)	(1,0)	(1,0)	(1,0)	(1,0)	(1,0)	
L1D -252>	(-1,11)	(-10,1)	(1,0)	(1,0)	(1,0)	(1,0)	(1,0)	(1,0)	(1,0)	(1,0)	(1,0)	(1,0)	(1,0)	(1,0)	(1,0)	(1,0)	
L1D -251>	(-10,2)	(-15,3)	(252,2)	(262,2)	(1,0)	(1,0)	(1,0)	(1,0)	(1,0)	(1,0)	(1,0)	(1,0)	(1,0)	(1,0)	(1,0)	(1,0)	
L1D -250>	(1,0)	(1,0)	(1,0)	(1,0)	(1,0)	(1,0)	(1,0)	(1,0)	(1,0)	(1,0)	(1,0)	(1,0)	(1,0)	(1,0)	(1,0)	(1,0)	
L1D -249>	(1,0)	(1,0)	(1,0)	(1,0)	(1,0)	(1,0)	(1,0)	(1,0)	(1,0)	(1,0)	(1,0)	(1,0)	(1,0)	(1,0)	(1,0)	(1,0)	
L1D -248>	(1,0)	(1,0)	(1,0)	(1,0)	(1,0)	(1,0)	(1,0)	(1,0)	(1,0)	(1,0)	(1,0)	(1,0)	(1,0)	(1,0)	(1,0)	(1,0)	
L1D -247>	(-14,1)	(-15,2)	(261,1)	(1,0)	(1,0)	(1,0)	(1,0)	(1,0)	(1,0)	(1,0)	(1,0)	(1,0)	(1,0)	(1,0)	(1,0)	(1,0)	
L1D -246>	(-16,2)	(-15,1)	(1,0)	(1,0)	(1,0)	(1,0)	(1,0)	(1,0)	(1,0)	(1,0)	(1,0)	(1,0)	(1,0)	(1,0)	(1,0)	(1,0)	
L1D -245>	(1,0)	(1,0)	(1,0)	(1,0)	(1,0)	(1,0)	(1,0)	(1,0)	(1,0)	(1,0)	(1,0)	(1,0)	(1,0)	(1,0)	(1,0)	(1,0)	
L1D -244>	(1,0)	(1,0)	(1,0)	(1,0)	(1,0)	(1,0)	(1,0)	(1,0)	(1,0)	(1,0)	(1,0)	(1,0)	(1,0)	(1,0)	(1,0)	(1,0)	
L1D -243>	(-19,2)	(251,3)	(1,0)	(1,0)	(1,0)	(1,0)	(1,0)	(1,0)	(1,0)	(1,0)	(1,0)	(1,0)	(1,0)	(1,0)	(1,0)	(1,0)	
L1D -242>	(-19,1)	(1,0)	(1,0)	(1,0)	(1,0)	(1,0)	(1,0)	(1,0)	(1,0)	(1,0)	(1,0)	(1,0)	(1,0)	(1,0)	(1,0)	(1,0)	
L1D -241>	(1,0)	(1,0)	(1,0)	(1,0)	(1,0)	(1,0)	(1,0)	(1,0)	(1,0)	(1,0)	(1,0)	(1,0)	(1,0)	(1,0)	(1,0)	(1,0)	
L1D -240>	(1,0)	(1,0)	(1,0)	(1,0)	(1,0)	(1,0)	(1,0)	(1,0)	(1,0)	(1,0)	(1,0)	(1,0)	(1,0)	(1,0)	(1,0)	(1,0)	
L1D -239>	(13,1)	(1,0)	(1,0)	(1,0)	(1,0)	(1,0)	(1,0)	(1,0)	(1,0)	(1,0)	(1,0)	(1,0)	(1,0)	(1,0)	(1,0)	(1,0)	
L1D -238>	(12,4)	(1,0)	(1,0)	(1,0)	(1,0)	(1,0)	(1,0)	(1,0)	(1,0)	(1,0)	(1,0)	(1,0)	(1,0)	(1,0)	(1,0)	(1,0)	
L1D -237>	(-24,1)	(1,0)	(1,0)	(1,0)	(1,0)	(1,0)	(1,0)	(1,0)	(1,0)	(1,0)	(1,0)	(1,0)	(1,0)	(1,0)	(1,0)	(1,0)	
L1D -236>	(1,0)	(1,0)	(1,0)	(1,0)	(1,0)	(1,0)	(1,0)	(1,0)	(1,0)	(1,0)	(1,0)	(1,0)	(1,0)	(1,0)	(1,0)	(1,0)	
L1D -235>	(10,3)	(9,3)	(1,0)	(1,0)	(1,0)	(1,0)	(1,0)	(1,0)	(1,0)	(1,0)	(1,0)	(1,0)	(1,0)	(1,0)	(1,0)	(1,0)	
L1D -234>	(242,12)	(8,16)	(1,0)	(1,0)	(1,0)	(1,0)	(1,0)	(1,0)	(1,0)	(1,0)	(1,0)	(1,0)	(1,0)	(1,0)	(1,0)	(1,0)	
L1D -233>	(7,11)	(1,0)	(1,0)	(1,0)	(1,0)	(1,0)	(1,0)	(1,0)	(1,0)	(1,0)	(1,0)	(1,0)	(1,0)	(1,0)	(1,0)	(1,0)	
L1D -232>	(6,4)	(1,0)	(1,0)	(1,0)	(1,0)	(1,0)	(1,0)	(1,0)	(1,0)	(1,0)	(1,0)	(1,0)	(1,0)	(1,0)	(1,0)	(1,0)	
L1D -231>	(228,2)	(5,13)	(229,11)	(1,0)	(1,0)	(1,0)	(1,0)	(1,0)	(1,0)	(1,0)	(1,0)	(1,0)	(1,0)	(1,0)	(1,0)	(1,0)	
L1D -230>	(4,27)	(1,0)	(1,0)	(1,0)	(1,0)	(1,0)	(1,0)	(1,0)	(1,0)	(1,0)	(1,0)	(1,0)	(1,0)	(1,0)	(1,0)	(1,0)	
L1D -229>	(232,15)	(3,14)	(-105,12)	(225,7)	(-104,2)	(227,5)	(2,1)	(-102,1)	(1,0)	(1,0)	(1,0)	(1,0)	(1,0)	(1,0)	(1,0)	(1,0)	
L1D -228>	(230,6)	(227,1)	(226,5)	(-3,7)	(-123,3)	(224,16)	(2,10)	(223,5)	(-127,6)	(225,1)	(-124,5)	(229,6)	(-93,2)	(-1,1)	(-121,1)	(1,0)	
L1D -227>	(228,16)	(1,3)	(227,7)	(224,9)	(225,21)	(-2,16)	(223,5)	(215,2)	(-131,7)	(-123,5)	(216,7)	(-106,5)	(-128,2)	(-129,7)	(226,7)	(-15,2)	
L1D -226>	(228,30)	(223,10)	(227,109)	(-33,1)	(229,39)	(224,15)	(20,5)	(16,3)	(1,4)	(10,3)	(225,26)	(-133,8)	(14,4)	(-119,6)	(230,13)	(-132,3)	
L1D -225>	(-128,1)	(23,3)	(227,26)	(10,10)	(19,11)	(16,3)	(11,3)	(-107,1)	(-2,3)	(222,2)	(1,5)	(-4,2)	(226,1)	(12,1)	(-132,2)	(-133,4)	
L1D -224>	(227,72)	(223,2)	(5,3)	(222,11)	(236,2)	(234,14)	(-131,11)	(220,7)	(235,2)	(-9,1)	(17,2)	(226,3)	(-82,1)	(-5,4)	(-127,1)	(219,1)	
L1D -223>	(226,12)	(225,2)	(-1,2)	(221,1)	(1,0)	(1,0)	(1,0)	(1,0)	(1,0)	(1,0)	(1,0)	(1,0)	(1,0)	(1,0)	(1,0)	(1,0)	
L1D -222>	(128,1)	(130,2)	(218,4)	(221,1)	(1,0)	(1,0)	(1,0)	(1,0)	(1,0)	(1,0)	(1,0)	(1,0)	(1,0)	(1,0)	(1,0)	(1,0)	
L1D -221>	(129,5)	(127,1)	(220,11)	(225,10)	(223,12)	(218,4)	(-1,1)	(1,0)	(1,0)	(1,0)	(1,0)	(1,0)	(1,0)	(1,0)	(1,0)	(1,0)	
L1D -220>	(1,12)	(-5,1)	(213,2)	(1,0)	(1,0)	(1,0)	(1,0)	(1,0)	(1,0)	(1,0)	(1,0)	(1,0)	(1,0)	(1,0)	(1,0)	(1,0)	
L1D -219>	(215,23)	(14,11)	(218,1)	(213,3)	(-7,3)	(217,2)	(216,1)	(225,1)	(224,1)	(1,0)	(1,0)	(1,0)	(1,0)	(1,0)	(1,0)	(1,0)	
L1D -218>	(15,8)	(211,3)	(12,2)	(207,1)	(215,1)	(1,0)	(1,0)	(1,0)	(1,0)	(1,0)	(1,0)	(1,0)	(1,0)	(1,0)	(1,0)	(1,0)	
L1D -217>	(223,7)	(224,2)	(216,3)	(225,1)	(221,2)	(209,1)	(1,0)	(1,0)	(1,0)	(1,0)	(1,0)	(1,0)	(1,0)	(1,0)	(1,0)	(1,0)	
L1D -216>	(2,1)	(213,8)	(205,4)	(214,2)	(215,2)	(201,1)	(207,1)	(1,0)	(1,0)	(1,0)	(1,0)	(1,0)	(1,0)	(1,0)	(1,0)	(1,0)	
L1D -215>	(217,1)	(214,9)	(2,14)	(213,7)	(-2,2)	(-1,2)	(-10,1)	(203,1)	(1,0)	(1,0)	(1,0)	(1,0)	(1,0)	(1,0)	(1,0)	(1,0)	
L1D -214>	(201,20)	(203,7)	(211,8)	(-11,1)	(1,0)	(1,0)	(1,0)	(1,0)	(1,0)	(1,0)	(1,0)	(1,0)	(1,0)	(1,0)	(1,0)	(1,0)	
L1D -213>	(-1,2)	(210,5)	(212,34)	(201,11)	(215,14)	(-12,4)	(-11,2)	(1,2)	(214,1)	(1,0)	(1,0)	(1,0)	(1,0)	(1,0)	(1,0)	(1,0)	
L1D -212>	(118,2)	(211,3)	(-1,5)	(199,3)	(210,1)	(214,1)	(193,2)	(197,2)	(1,0)	(1,0)	(1,0)	(1,0)	(1,0)	(1,0)	(1,0)	(1,0)	
L1D -211>	(52,9)	(117,1)	(205,11)	(207,11)	(208,5)	(209,7)	(193,1)	(-1,5)	(197,3)	(-14,1)	(195,2)	(1,0)	(1,0)	(1,0)	(1,0)	(1,0)	
L1D -210>	(52,5)	(116,3)	(113,1)	(213,1)	(209,3)	(-15,1)	(212,1)	(204,1)	(1,0)	(1,0)	(1,0)	(1,0)	(1,0)	(1,0)	(1,0)	(1,0)	
L1D -209>	(115,5)	(208,2)	(-15,9)	(211,4)	(-1,3)	(-14,2)	(15,3)	(52,7)	(111,1)	(117,1)	(-16,2)	(1,0)	(1,0)	(1,0)	(1,0)	(1,0)	
L1D -208>	(114,7)	(210,1)	(-18,1)	(113,1)	(209,2)	(116,1)	(112,1)	(1,0)	(1,0)	(1,0)	(1,0)	(1,0)	(1,0)	(1,0)	(1,0)	(1,0)	
L1D -207>	(50,17)	(-19,14)	(-17,2)	(210,3)	(209,3)	(208,3)	(1,0)	(1,0)	(1,0)	(1,0)	(1,0)	(1,0)	(1,0)	(1,0)	(1,0)	(1,0)	
L1D -206>	(112,3)	(110,1)	(202,1)	(214,3)	(207,2)	(208,2)	(1,0)	(1,0)	(1,0)	(1,0)	(1,0)	(1,0)	(1,0)	(1,0)	(1,0)	(1,0)	
L1D -205>	(111,3)	(208,2)	(206,2)	(52,1)	(1,0)	(1,0)	(1,0)	(1,0)	(1,0)	(1,0)	(1,0)	(1,0)	(1,0)	(1,0)	(1,0)	(1,0)	
L1D -204>	(-22,2)	(210,1)	(51,1)	(1,0)	(1,0)	(1,0)	(1,0)	(1,0)	(1,0)	(1,0)	(1,0)	(1,0)	(1,0)	(1,0)	(1,0)	(1,0)	
L1D -203>	(52,4)	(109,1)	(-23,10)	(204,4)	(1,0)	(1,0)	(1,0)	(1,0)	(1,0)	(1,0)	(1,0)	(1,0)	(1,0)	(1,0)	(1,0)	(1,0)	
L1D -202>	(204,12)	(-2,3)	(1,0)	(1,0)	(1,0)	(1,0)	(1,0)	(1,0)	(1,0)	(1,0)	(1,0)	(1,0)	(1,0)	(1,0)	(1,0)	(1,0)	
L1D -201>	(52,79)	(202,6)	(1,0)	(1,0)	(1,0)	(1,0)	(1,0)	(1,0)	(1,0)	(1,0)	(1,0)	(1,0)	(1,0)	(1,0)	(1,0)	(1,0)	
L1D -200>	(106,1)	(108,2)	(2,38)	(199,43)	(109,1)	(1,0)	(1,0)	(1,0)	(1,0)	(1,0)	(1,0)	(1,0)	(1,0)	(1,0)	(1,0)	(1,0)	
L1D -199>	(2,8)	(107,1)	(52,37)	(105,1)	(196,11)	(199,14)	(-2,4)	(-27,18)	(201,2)	(204,2)	(-1,1)	(1,0)	(1,0)	(1,0)	(1,0)	(1,0)	
L1D -198>	(1,15)	(9,6)	(1,0)	(1,0)	(1,0)	(1,0)	(1,0)	(1,0)	(1,0)	(1,0)	(1,0)	(1,0)	(1,0)	(1,0)	(1,0)	(1,0)	
L1D -197>	(38,1)	(1,14)	(1,0)	(1,0)	(1,0)	(1,0)	(1,0)	(1,0)	(1,0)	(1,0)	(1,0)	(1,0)	(1,0)	(1,0)	(1,0)	(1,0)	
L1D -196>	(104,2)	(197,1)	(1,1)	(1,0)	(1,0)	(1,0)	(1,0)	(1,0)	(1,0)	(1,0)	(1,0)	(1,0)	(1,0)	(1,0)	(1,0)	(1,0)	
L1D -195>	(199,1)	(194,1)	(103,2)	(99,3)	(38,3)	(197,1)	(1,0)	(1,0)	(1,0)	(1,0)	(1,0)	(1,0)	(1,0)	(1,0)	(1,0)	(1,0)	
L1D -194>	(100,15)	(2,15)	(196,11)	(-32,13)	(44,6)	(-15,5)	(19,3)	(197,1)	(1,0)	(1,0)	(1,0)	(1,0)	(1,0)	(1,0)	(1,0)	(1,0)	
L1D -193>	(34,1)	(197,2)	(52,3)	(1,0)	(1,0)	(1,0)	(1,0)	(1,0)	(1,0)	(1,0)	(1,0)	(1,0)	(1,0)	(1,0)	(1,0)	(1,0)	
L1D -192>	(1,0)	(1,0)	(1,0)	(1,0)	(1,0)	(1,0)	(1,0)	(1,0)	(1,0)	(1,0)	(1,0)	(1,0)	(1,0)	(1,0)	(1,0)	(1,0)	
L1D -191>	(190,1)	(52,1)	(1,0)	(1,0)	(1,0)	(1,0)	(1,0)	(1,0)	(1,0)	(1,0)	(1,0)	(1,0)	(1,0)	(1,0)	(1,0)	(1,0)	
L1D -190>	(2,45)	(193,1)	(1,0)	(1,0)	(1,0)	(1,0)	(1,0)	(1,0)	(1,0)	(1,0)	(1,0)	(1,0)	(1,0)	(1,0)	(1,0)	(1,0)	
L1D -189>	(1,9)	(1,0)	(1,0)	(1,0)	(1,0)	(1,0)	(1,0)	(1,0)	(1,0)	(1,0)	(1,0)	(1,0)	(1,0)	(1,0)	(1,0)	(1,0)	
L1D -188>	(1,9)	(187,10)	(3,2)	(1,0)	(1,0)	(1,0)	(1,0)	(1,0)	(1,0)	(1,0)	(1,0)	(1,0)	(1,0)	(1,0)	(1,0)	(1,0)	
L1D -187>	(28,1)	(2,1)	(197,2)	(1,0)	(1,0)	(1,0)	(1,0)	(1,0)	(1,0)	(1,0)	(1,0)	(1,0)	(1,0)	(1,0)	(1,0)	(1,0)	
L1D -186>	(94,75)	(13,1)	(1,0)	(1,0)	(1,0)	(1,0)	(1,0)	(1,0)	(1,0)	(1,0)	(1,0)	(1,0)	(1,0)	(1,0)	(1,0)	(1,0)	
L1D -185>	(52,7)	(191,1)	(1,0)	(1,0)	(1,0)	(1,0)	(1,0)	(1,0)	(1,0)	(1,0)	(1,0)	(1,0)	(1,0)	(1,0)	(1,0)	(1,0)	
L1D -184>	(44,75)	(43,2)	(184,13)	(1,0)	(1,0)	(1,0)	(1,0)	(1,0)	(1,0)	(1,0)	(1,0)	(1,0)	(1,0)	(1,0)	(1,0)	(1,0)	
L1D -183>	(182,2)	(34,3)	(57,4)	(1,0)	(1,0)	(1,0)	(1,0)	(1,0)	(1,0)	(1,0)	(1,0)	(1,0)	(1,0)	(1,0)	(1,0)	(1,0)	
L1D -182>	(0,7)	(3,2)	(1,0)	(1,0)	(1,0)	(1,0)	(1,0)	(1,0)	(1,0)	(1,0)	(1,0)	(1,0)	(1,0)	(1,0)	(1,0)	(1,0)	
L1D -181>	(1,16)	(180,3)	(1,0)	(1,0)	(1,0)	(1,0)	(1,0)	(1,0)	(1,0)	(1,0)	(1,0)	(1,0)	(1,0)	(1,0)	(1,0)	(1,0)	
L1D -180>	(1,3)	(2,11)	(180,45)	(3,15)	(52,3)	(181,2)	(8,1)	(1,0)	(1,0)	(1,0)	(1,0)	(1,0)	(1,0)	(1,0)	(1,0)	(1,0)	
L1D -179>	(180,23)	(185,11)	(1,0)	(1,0)	(1,0)	(1,0)	(1,0)	(1,0)	(1,0)	(1,0)	(1,0)	(1,0)	(1,0)	(1,0)	(1,0)	(1,0)	
L1D -178>	(1,9)	(177,11)	(6,2)	(74,2)	(1,0)	(1,0)	(1,0)	(1,0)	(1,0)	(1,0)	(1,0)	(1,0)	(1,0)	(1,0)	(1,0)	(1,0)	
L1D -177>	(28,2)	(1,0)	(1,0)	(1,0)	(1,0)	(1,0)	(1,0)	(1,0)	(1,0)	(1,0)	(1,0)	(1,0)	(1,0)	(1,0)	(1,0)	(1,0)	
L1D -176>	(2,1)	(3,6)	(1,0)	(1,0)	(1,0)	(1,0)	(1,0)	(1,0)	(1,0)	(1,0)	(1,0)	(1,0)	(1,0)	(1,0)	(1,0)	(1,0)	
L1D -175>	(181,11)	(1,6)	(8,3)	(177,6)	(1,0)	(1,0)	(1,0)	(1,0)	(1,0)	(1,0)	(1,0)	(1,0)	(1,0)	(1,0)	(1,0)	(1,0)	
L1D -174>	(78,1)	(4,1)	(1,0)	(1,0)	(1,0)	(1,0)	(1,0)	(1,0)	(1,0)	(1,0)	(1,0)	(1,0)	(1,0)	(1,0)	(1,0)	(1,0)	
L1D -173>	(1,7)	(6,17)	(2,1)	(1,0)	(1,0)	(1,0)	(1,0)	(1,0)	(1,0)	(1,0)	(1,0)	(1,0)	(1,0)	(1,0)	(1,0)	(1,0)	
L1D -172>	(1,8)	(1,0)	(1,0)	(1,0)	(1,0)	(1,0)	(1,0)	(1,0)	(1,0)	(1,0)	(1,0)	(1,0)	(1,0)	(1,0)	(1,0)	(1,0)	
L1D -171>	(80,9)	(1,57)	(3,3)	(8,7)	(1,0)	(1,0)	(1,0)	(1,0)	(1,0)	(1,0)	(1,0)	(1,0)	(1,0)	(1,0)	(1,0)	(1,0)	
L1D -170>	(1,0)	(1,0)	(1,0)	(1,0)	(1,0)	(1,0)	(1,0)	(1,0)	(1,0)	(1,0)	(1,0)	(1,0)	(1,0)	(1,0)	(1,0)	(1,0)	
L1D -169>	(94,1)	(2,5)	(175,11)	(1,12)	(28,1)	(8,3)	(1,0)	(1,0)	(1,0)	(1,0)	(1,0)	(1,0)	(1,0)	(1,0)	(1,0)	(1,0)	
L1D -168>	(167,60)	(2,13)	(94,1)	(178,14)	(3,4)	(1,1)	(1,0)	(1,0)	(1,0)	(1,0)	(1,0)	(1,0)	(1,0)	(1,0)	(1,0)	(1,0)	
L1D -167>	(94,104)	(3,2)	(1,0)	(1,0)	(1,0)	(1,0)	(1,0)	(1,0)	(1,0)	(1,0)	(1,0)	(1,0)	(1,0)	(1,0)	(1,0)	(1,0)	
L1D -166>	(1,16)	(1,0)	(1,0)	(1,0)	(1,0)	(1,0)	(1,0)	(1,0)	(1,0)	(1,0)	(1,0)	(1,0)	(1,0)	(1,0)	(1,0)	(1,0)	
L1D -165>	(1,6)	(30,1)	(94,30)	(6,5)	(2,12)	(1,0)	(1,0)	(1,0)	(1,0)	(1,0)	(1,0)	(1,0)	(1,0)	(1,0)	(1,0)	(1,0)	
L1D -164>	(1,3)	(38,26)	(132,12)	(2,5)	(-1,2)	(1,0)	(1,0)	(1,0)	(1,0)	(1,0)	(1,0)	(1,0)	(1,0)	(1,0)	(1,0)	(1,0)	
L1D -163>	(162,56)	(1,95)	(164,0)	(1,0)	(1,0)	(1,0)	(1,0)	(1,0)	(1,0)	(1,0)	(1,0)	(1,0)	(1,0)	(1,0)	(1,0)	(1,0)	
L1D -162>	(172,20)	(-1,1)	(1,4)	(1,0)	(1,0)	(1,0)	(1,0)	(1,0)	(1,0)	(1,0)	(1,0)	(1,0)	(1,0)	(1,0)	(1,0)	(1,0)	
L1D -161>	(26,1)	(30,3)	(172,53)	(164,1)	(1,0)	(1,0)	(1,0)	(1,0)	(1,0)	(1,0)	(1,0)	(1,0)	(1,0)	(1,0)	(1,0)	(1,0)	
L1D -160>	(132,3)	(133,1)	(1,0)	(1,0)	(1,0)	(1,0)	(1,0)	(1,0)	(1,0)	(1,0)	(1,0)	(1,0)	(1,0)	(1,0)	(1,0)	(1,0)	
L1D -159>	(164,6)	(132,7)	(26,9)	(-1,2)	(38,2)	(172,2)	(191,1)	(94,1)	(1,0)	(1,0)	(1,0)	(1,0)	(1,0)	(1,0)	(1,0)	(1,0)	
L1D -158>	(30,3)	(166,2)	(-43,1)	(1,0)	(1,0)	(1,0)	(1,0)	(1,0)	(1,0)	(1,0)	(1,0)	(1,0)	(1,0)	(1,0)	(1,0)	(1,0)	
L1D -157>	(164,102)	(6,2)	(165,3)	(-2,0)	(1,0)	(1,0)	(1,0)	(1,0)	(1,0)	(1,0)	(1,0)	(1,0)	(1,0)	(1,0)	(1,0)	(1,0)	
L1D -156>	(1,0)	(1,0)	(1,0)	(1,0)	(1,0)	(1,0)	(1,0)	(1,0)	(1,0)	(1,0)	(1,0)	(1,0)	(1,0)	(1,0)	(1,0)	(1,0)	
L1D -155>	(162,1)	(157,1)	(1,2)	(1,0)	(1,0)	(1,0)	(1,0)	(1,0)	(1,0)	(1,0)	(1,0)	(1,0)	(1,0)	(1,0)	(1,0)	(1,0)	
L1D -154>	(1,9)	(1,0)	(1,0)	(1,0)	(1,0)	(1,0)	(1,0)	(1,0)	(1,0)	(1,0)	(1,0)	(1,0)	(1,0)	(1,0)	(1,0)	(1,0)	
L1D -153>	(154,1)	(1,0)	(1,0)	(1,0)	(1,0)	(1,0)	(1,0)	(1,0)	(1,0)	(1,0)	(1,0)	(1,0)	(1,0)	(1,0)	(1,0)	(1,0)	
L1D -152>	(1,0)	(1,0)	(1,0)	(1,0)	(1,0)	(1,0)	(1,0)	(1,0)	(1,0)	(1,0)	(1,0)	(1,0)	(1,0)	(1,0)	(1,0)	(1,0)	
L1D -151>	(1,2)	(157,1)	(159,5)	(1,0)	(1,0)	(1,0)	(1,0)	(1,0)	(1,0)	(1,0)	(1,0)	(1,0)	(1,0)	(1,0)	(1,0)	(1,0)	
L1D -150>	(149,74)	(1,5)	(-44,3)	(56,0)	(1,0)	(1,0)	(1,0)	(1,0)	(1,0)	(1,0)	(1,0)	(1,0)	(1,0)	(1,0)	(1,0)	(1,0)	
L1D -149>	(157,8)	(154,34)	(1,0)	(1,0)	(1,0)	(1,0)	(1,0)	(1,0)	(1,0)	(1,0)	(1,0)	(1,0)	(1,0)	(1,0)	(1,0)	(1,0)	
L1D -148>	(54,1)	(1,0)	(1,0)	(1,0)	(1,0)	(1,0)	(1,0)	(1,0)	(1,0)	(1,0)	(1,0)	(1,0)	(1,0)	(1,0)	(1,0)	(1,0)	
L1D -147>	(155,3)	(150,11)	(-10,1)	(1,0)	(1,0)	(1,0)	(1,0)	(1,0)	(1,0)	(1,0)	(1,0)	(1,0)	(1,0)	(1,0)	(1,0)	(1,0)	
L1D -146>	(90,7)	(139,1)	(1,0)	(1,0)	(1,0)	(1,0)	(1,0)	(1,0)	(1,0)	(1,0)	(1,0)	(1,0)	(1,0)	(1,0)	(1,0)	(1,0)	
L1D -145>	(89,6)	(2,1)	(149,1)	(1,0)	(1,0)	(1,0)	(1,0)	(1,0)	(1,0)	(1,0)	(1,0)	(1,0)	(1,0)	(1,0)	(1,0)	(1,0)	
L1D -144>	(143,30)	(135,45)	(137,9)	(88,1)	(142,1)	(1,0)	(1,0)	(1,0)	(1,0)	(1,0)	(1,0)	(1,0)	(1,0)	(1,0)	(1,0)	(1,0)	
L1D -143>	(1,2)	(142,12)	(-1,11)	(140,7)	(141,1)	(88,2)	(121,1)	(1,0)	(1,0)	(1,0)	(1,0)	(1,0)	(1,0)	(1,0)	(1,0)	(1,0)	
L1D -142>	(141,2)	(-1,3)	(-2,9)	(133,4)	(140,3)	(39,1)	(1,1)	(1,0)	(1,0)	(1,0)	(1,0)	(1,0)	(1,0)	(1,0)	(1,0)	(1,0)	
L1D -141>	(-1,12)	(2,3)	(-3,6)	(140,4)	(139,3)	(149,16)	(127,2)	(132,13)	(38,5)	(-2,2)	(138,1)	(133,2)	(137,1)	(126,1)	(1,0)	(1,0)	
L1D -140>	(140,5)	(172,18)	(0,4)	(-4,12)	(24,14)	(6,4)	(75,2)	(-2,3)	(138,5)	(137,7)	(-3,5)	(139,3)	(131,2)	(141,2)	(85,1)	(94,2)	
L1D -139>	(129,40)	(1,11)	(138,6)	(97,1)	(-3,2)	(137,2)	(125,1)	(172,1)	(127,1)	(135,1)	(1,0)	(1,0)	(1,0)	(1,0)	(1,0)	(1,0)	
L1D -138>	(172,13)	(139,5)	(-3,5)	(121,1)	(134,2)	(94,1)	(127,1)	(136,1)	(135,1)	(1,0)	(1,0)	(1,0)	(1,0)	(1,0)	(1,0)	(1,0)	
L1D -137>	(93,15)	(94,15)	(135,13)	(-4,1)	(89,10)	(92,13)	(136,3)	(-1,1)	(125,3)	(172,10)	(91,4)	(123,1)	(-2,2)	(134,2)	(1,0)	(1,0)	
L1D -136>	(1,59)	(91,3)	(93,15)	(42,17)	(94,1)	(135,11)	(116,1)	(-2,2)	(92,4)	(121,1)	(90,1)	(1,0)	(1,0)	(1,0)	(1,0)	(1,0)	
L1D -135>	(49,68)	(50,30)	(48,64)	(1,9)	(89,1)	(40,0)	(178,20)	(45,10)	(43,2)	(47,9)	(136,0)	(121,0)	(197,0)	(91,1)	(90,0)	(179,0)	
L1D -134>	(47,40)	(49,53)	(167,1)	(87,1)	(-1,1)	(20,1)	(45,1)	(119,0)	(48,9)	(1,105)	(43,0)	(46,0)	(88,0)	(83,1)	(133,0)	(21,2)	
L1D -133>	(45,18)	(48,1)	(1,1)	(50,2)	(90,2)	(357,3)	(358,2)	(-1,1)	(47,23)	(108,1)	(2,1)	(46,72)	(353,1)	(5,0)	(135,105)	(356,0)	
L1D -132>	(43,20)	(47,24)	(50,29)	(107,1)	(37,2)	(119,3)	(357,5)	(45,111)	(44,19)	(134,1)	(114,1)	(39,29)	(-1,6)	(46,14)	(41,9)	(49,65)	
L1D -131>	(41,8)	(46,32)	(1,104)	(221,9)	(222,10)	(25,2)	(355,3)	(353,3)	(43,6)	(50,1)	(219,3)	(44,5)	(42,68)	(45,78)	(220,10)	(37,8)	
L1D -130>	(39,105)	(45,12)	(219,12)	(221,12)	(44,5)	(220,1)	(50,1)	(347,1)	(357,2)	(42,3)	(108,30)	(43,11)	(37,7)	(35,1)	(30,7)	(33,1)	
L1D -129>	(37,11)	(44,108)	(162,3)	(217,4)	(41,7)	(221,1)	(27,2)	(33,1)	(354,4)	(46,8)	(35,6)	(42,4)	(43,41)	(40,3)	(218,16)	(31,5)	
L1D -128>	(35,35)	(43,32)	(28,1)	(219,4)	(75,4)	(-1,2)	(347,1)	(26,1)	(33,10)	(221,11)	(37,6)	(29,12)	(41,111)	(42,9)	(40,4)	(217,16)	
L1D -127>	(44,116)	(33,121)	(42,20)	(50,1)	(218,4)	(214,9)	(125,4)	(219,4)	(111,3)	(31,88)	(39,53)	(217,17)	(29,2)	(41,12)	(1,6)	(40,30)	
L1D -126>	(41,95)	(31,65)	(125,68)	(211,56)	(217,9)	(71,6)	(343,5)	(124,1)	(52,7)	(123,27)	(215,6)	(27,11)	(39,37)	(33,3)	(83,4)	(29,36)	
L1D -125>	(29,8)	(40,8)	(50,0)	(216,8)	(69,2)	(52,0)	(341,2)	(27,2)	(2,1)	(218,2)	(205,0)	(38,11)	(31,2)	(124,2)	(39,18)	(42,67)	
L1D -124>	(27,113)	(39,43)	(207,9)	(215,4)	(81,4)	(42,1)	(349,1)	(25,57)	(21,10)	(213,21)	(68,4)	(333,1)	(38,12)	(123,13)	(205,3)	(36,1)	
L1D -123>	(25,73)	(38,18)	(205,8)	(36,1)	(65,2)	(80,1)	(21,6)	(203,7)	(211,4)	(216,7)	(34,0)	(35,4)	(40,2)	(1,58)	(23,12)	(37,49)	
L1D -122>	(23,79)	(37,26)	(203,1)	(199,1)	(335,2)	(201,0)	(35,45)	(30,7)	(1,5)	(31,4)	(109,0)	(36,1)	(19,6)	(21,20)	(120,0)	(-1,1)	
L1D -121>	(21,46)	(36,62)	(1,93)	(50,2)	(212,2)	(65,1)	(80,1)	(92,2)	(214,5)	(216,1)	(29,2)	(205,1)	(35,7)	(38,49)	(118,1)	(19,3)	
L1D -120>	(19,36)	(35,78)	(91,78)	(199,15)	(211,7)	(345,4)	(203,11)	(116,6)	(33,12)	(114,4)	(96,10)	(20,8)	(119,1)	(93,11)	(-1,5)	(21,11)	
L1D -119>	(34,10)	(197,9)	(123,1)	(329,3)	(344,4)	(19,39)	(-1,5)	(31,1)	(214,4)	(23,3)	(25,5)	(50,3)	(36,127)	(32,7)	(118,7)	(209,10)	
L1D -118>	(195,35)	(209,27)	(76,3)	(60,1)	(29,2)	(33,18)	(23,2)	(343,14)	(210,12)	(32,3)	(31,14)	(35,8)	(19,10)	(117,29)	(193,4)	(-1,6)	
L1D -117>	(193,11)	(208,26)	(116,3)	(0,1)	(28,3)	(42,1)	(32,2)	(21,2)	(52,11)	(209,8)	(122,104)	(25,7)	(31,9)	(34,14)	(1,11)	(210,18)	
L1D -116>	(205,15)	(209,15)	(-1,1)	(74,1)	(29,3)	(31,30)	(25,18)	(19,5)	(149,1)	(116,12)	(0,7)	(207,1)	(115,28)	(24,12)	(208,8)	(204,7)	
L1D -115>	(203,15)	(-1,16)	(23,16)	(30,16)	(120,3)	(210,13)	(208,37)	(17,1)	(28,1)	(29,11)	(211,4)	(123,4)	(71,2)	(16,1)	(27,3)	(15,2)	
L1D -114>	(22,15)	(207,5)	(71,4)	(113,1)	(25,1)	(29,17)	(28,1)	(21,15)	(14,2)	(205,3)	(203,5)	(210,3)	(26,11)	(27,9)	(84,7)	(-1,18)	
L1D -113>	(84,73)	(115,1)	(205,33)	(27,54)	(26,2)	(28,25)	(67,23)	(110,1)	(73,1)	(19,12)	(30,14)	(42,2)	(208,15)	(23,27)	(-1,14)	(126,2)	
L1D -112>	(84,32)	(113,16)	(205,5)	(45,2)	(27,7)	(26,4)	(-1,16)	(110,1)	(103,92)	(109,4)	(29,3)	(24,1)	(100,1)	(12,1)	(202,2)	(7,1)	
L1D -111>	(84,77)	(203,2)	(44,1)	(42,0)	(-1,8)	(26,3)	(29,0)	(19,7)	(24,0)	(28,24)	(43,0)	(25,5)	(20,3)	(1,1)	(201,1)	(202,0)	
L1D -110>	(84,115)	(122,1)	(203,11)	(47,6)	(25,28)	(28,98)	(44,2)	(27,3)	(112,6)	(23,9)	(18,8)	(1,5)	(50,13)	(-1,23)	(103,22)	(19,2)	
L1D -109>	(84,115)	(20,4)	(1,9)	(23,10)	(19,55)	(24,3)	(199,10)	(27,3)	(115,6)	(-1,5)	(48,4)	(2,1)	(44,9)	(17,3)	(26,11)	(85,2)	
L1D -108>	(84,79)	(15,6)	(1,1)	(23,11)	(202,1)	(45,1)	(20,2)	(199,5)	(-1,10)	(26,7)	(109,8)	(16,13)	(14,1)	(19,16)	(27,1)	(85,7)	
L1D -107>	(84,76)	(23,0)	(13,0)	(200,0)	(195,0)	(2,4)	(15,2)	(105,1)	(85,5)	(329,1)	(24,7)	(22,2)	(109,1)	(1,11)	(25,1)	(26,0)	
L1D -106>	(84,119)	(50,12)	(20,1)	(13,5)	(17,3)	(197,3)	(327,3)	(14,12)	(19,6)	(1,4)	(200,6)	(12,10)	(85,2)	(24,4)	(21,2)	(108,1)	
L1D -105>	(84,118)	(13,15)	(195,13)	(14,4)	(2,1)	(-1,1)	(85,9)	(196,5)	(19,1)	(22,4)	(24,2)	(198,5)	(1,3)	(329,5)	(193,5)	(18,92)	
L1D -104>	(84,66)	(15,9)	(18,1)	(101,3)	(17,1)	(195,3)	(-1,2)	(85,3)	(104,2)	(10,7)	(1,2)	(12,4)	(198,0)	(27,0)	(2,1)	(-26,1)	
L1D -103>	(84,109)	(21,1)	(86,1)	(18,2)	(17,44)	(1,12)	(85,14)	(16,32)	(107,9)	(61,0)	(2,3)	(11,0)	(102,0)	(9,0)	(100,2)	(196,1)	
L1D -102>	(84,122)	(17,3)	(42,1)	(101,3)	(16,1)	(86,1)	(8,4)	(10,0)	(1,2)	(24,1)	(21,0)	(20,1)	(85,3)	(11,2)	(1,0)	(1,0)	
L1D -101>	(84,103)	(85,2)	(8,2)	(97,2)	(-29,2)	(-11,1)	(107,1)	(191,0)	(10,1)	(2,3)	(52,1)	(9,5)	(14,0)	(1,2)	(16,5)	(15,0)	
L1D -100>	(84,87)	(6,1)	(-15,0)	(97,4)	(106,0)	(44,0)	(1,1)	(58,1)	(191,2)	(8,15)	(2,7)	(85,6)	(14,11)	(42,5)	(-11,0)	(-17,1)	
L1D -99>	(84,121)	(97,1)	(57,1)	(2,0)	(-11,0)	(-17,1)	(1,27)	(5,10)	(-13,1)	(98,0)	(191,1)	(12,12)	(7,11)	(85,1)	(13,2)	(96,1)	
L1D -98>	(84,79)	(86,1)	(4,3)	(6,7)	(11,8)	(-1,1)	(97,5)	(2,0)	(102,3)	(188,1)	(-112,1)	(12,19)	(85,4)	(121,78)	(13,11)	(1,3)	
L1D -97>	(84,95)	(85,10)	(11,1)	(12,2)	(100,8)	(3,8)	(4,10)	(1,9)	(10,41)	(95,70)	(86,16)	(92,24)	(96,46)	(6,12)	(5,12)	(98,5)	
L1D -96>	(84,80)	(2,5)	(95,24)	(13,1)	(10,3)	(86,2)	(1,7)	(93,94)	(-110,3)	(92,4)	(121,9)	(4,18)	(85,4)	(11,2)	(91,1)	(87,9)	
L1D -95>	(84,107)	(91,15)	(96,20)	(95,1)	(85,3)	(98,4)	(92,12)	(94,4)	(8,9)	(-31,1)	(86,23)	(-1,12)	(1,1)	(93,1)	(-128,3)	(10,5)	
L1D -94>	(84,30)	(-2,22)	(93,83)	(94,13)	(97,38)	(92,43)	(95,95)	(-39,1)	(91,29)	(88,15)	(102,11)	(98,15)	(96,38)	(90,24)	(99,9)	(-1,9)	
L1D -93>	(84,109)	(1,45)	(-3,4)	(92,7)	(90,4)	(93,1)	(8,27)	(89,4)	(106,4)	(-42,5)	(-1,3)	(96,7)	(94,12)	(91,4)	(82,2)	(98,6)	
L1D -92>	(84,105)	(-1,11)	(91,47)	(96,11)	(94,68)	(90,27)	(81,19)	(121,2)	(93,107)	(1,83)	(95,39)	(88,12)	(-130,9)	(112,10)	(-131,8)	(108,9)	
L1D -91>	(84,36)	(90,8)	(1,11)	(89,3)	(120,1)	(-2,1)	(6,5)	(93,122)	(-4,11)	(91,4)	(144,7)	(-124,4)	(2,2)	(50,5)	(-123,5)	(87,5)	
L1D -90>	(84,89)	(89,12)	(143,18)	(145,33)	(100,7)	(3,12)	(7,15)	(5,10)	(-5,16)	(142,14)	(93,68)	(99,1)	(-2,15)	(-127,10)	(94,5)	(1,2)	
L1D -89>	(84,110)	(88,13)	(141,7)	(1,13)	(87,4)	(4,13)	(142,4)	(85,1)	(0,7)	(91,1)	(90,7)	(89,2)	(42,1)	(93,8)	(143,4)	(98,1)	
L1D -88>	(84,120)	(80,1)	(82,6)	(-4,3)	(86,49)	(83,58)	(-43,8)	(141,7)	(-41,33)	(-2,3)	(85,28)	(-6,46)	(30,4)	(6,4)	(3,12)	(-15,4)	
L1D -87>	(84,116)	(86,46)	(85,30)	(7,3)	(2,5)	(1,7)	(68,3)	(-1,82)	(81,9)	(-3,6)	(77,8)	(-7,6)	(83,62)	(82,84)	(-2,7)	(87,1)	
L1D -86>	(84,102)	(-18,2)	(85,10)	(-41,1)	(-39,1)	(76,4)	(-40,1)	(-2,19)	(-1,37)	(3,8)	(-5,1)	(83,32)	(82,17)	(-42,11)	(-12,6)	(-33,1)	
L1D -85>	(-13,3)	(84,70)	(-4,1)	(-42,1)	(82,6)	(86,1)	(-1,12)	(83,11)	(-46,0)	(-2,6)	(-40,0)	(-19,2)	(-41,1)	(-3,2)	(81,2)	(-8,6)	
L1D -84>	(-1,59)	(84,52)	(114,25)	(115,16)	(83,34)	(6,1)	(81,6)	(33,5)	(-2,56)	(-27,25)	(-3,105)	(82,33)	(-39,16)	(-15,17)	(-28,8)	(11,11)	
L1D -83>	(84,64)	(86,17)	(85,5)	(11,3)	(8,0)	(1,1)	(17,1)	(82,1)	(20,3)	(3,5)	(10,3)	(15,2)	(13,4)	(23,3)	(16,1)	(21,3)	
L1D -82>	(84,63)	(82,1)	(12,1)	(81,82)	(-48,0)	(27,0)	(13,0)	(24,5)	(85,14)	(18,0)	(11,0)	(43,0)	(20,1)	(-1,2)	(17,0)	(9,4)	
L1D -81>	(84,60)	(80,75)	(2,0)	(13,0)	(1,8)	(89,6)	(14,1)	(91,0)	(19,0)	(12,0)	(85,0)	(43,2)	(81,2)	(-2,0)	(133,0)	(125,0)	
L1D -80>	(84,113)	(21,1)	(82,5)	(81,14)	(6,1)	(-3,26)	(-4,1)	(3,23)	(4,6)	(1,1)	(-1,25)	(2,11)	(83,19)	(14,0)	(24,3)	(123,2)	
L1D -79>	(84,120)	(-65,1)	(-4,11)	(80,18)	(1,2)	(78,31)	(30,7)	(121,8)	(-1,27)	(82,6)	(81,10)	(120,3)	(79,20)	(-20,25)	(132,11)	(119,10)	
L1D -78>	(84,93)	(-5,9)	(2,4)	(81,105)	(79,96)	(-20,4)	(77,1)	(133,2)	(80,41)	(86,18)	(82,29)	(-1,99)	(4,29)	(117,7)	(6,5)	(20,10)	
L1D -77>	(84,84)	(74,1)	(-6,21)	(78,43)	(76,24)	(131,7)	(117,7)	(-1,5)	(-2,83)	(79,22)	(-20,2)	(77,18)	(134,10)	(2,41)	(81,25)	(80,39)	
L1D -76>	(-7,1)	(84,80)	(-2,1)	(77,1)	(81,1)	(115,1)	(82,1)	(78,7)	(75,1)	(79,11)	(80,33)	(2,2)	(83,11)	(-1,12)	(3,2)	(-12,0)	
L1D -75>	(84,108)	(-8,18)	(115,1)	(-3,6)	(76,7)	(74,16)	(75,5)	(78,1)	(82,22)	(83,1)	(7,3)	(132,5)	(19,2)	(77,4)	(-1,13)	(-2,1)	
L1D -74>	(-9,4)	(84,116)	(83,2)	(77,3)	(111,1)	(2,6)	(73,6)	(115,2)	(75,2)	(109,1)	(-8,1)	(-10,1)	(-1,3)	(57,1)	(116,1)	(79,3)	
L1D -73>	(-10,12)	(84,70)	(-18,2)	(74,14)	(72,24)	(-93,5)	(109,3)	(83,3)	(-1,3)	(73,11)	(114,1)	(76,2)	(-50,2)	(75,0)	(116,2)	(17,0)	
L1D -72>	(84,66)	(-11,5)	(74,0)	(79,0)	(73,4)	(71,1)	(76,2)	(-10,1)	(5,2)	(113,1)	(107,0)	(15,0)	(109,0)	(72,0)	(-1,14)	(78,1)	
L1D -71>	(-12,13)	(84,70)	(79,1)	(72,30)	(70,47)	(109,5)	(117,2)	(148,8)	(-93,2)	(71,16)	(-1,6)	(83,2)	(107,4)	(114,5)	(-50,1)	(15,21)	
L1D -70>	(84,72)	(116,1)	(60,1)	(69,11)	(78,0)	(-3,1)	(111,3)	(74,2)	(73,1)	(75,0)	(14,6)	(-1,13)	(77,4)	(83,1)	(1,4)	(-13,3)	
L1D -69>	(84,102)	(-14,16)	(-13,2)	(68,69)	(20,16)	(69,47)	(-1,18)	(10,2)	(110,11)	(13,5)	(113,3)	(70,10)	(83,2)	(72,2)	(15,3)	(42,5)	
L1D -68>	(84,118)	(-15,9)	(67,10)	(-14,3)	(69,1)	(83,3)	(71,1)	(53,2)	(13,1)	(123,1)	(68,4)	(-1,17)	(76,5)	(12,5)	(70,13)	(105,2)	
L1D -67>	(-16,23)	(84,125)	(66,60)	(68,6)	(67,53)	(30,1)	(-1,27)	(70,21)	(-15,10)	(83,30)	(-2,1)	(124,5)	(11,21)	(69,3)	(82,2)	(-14,7)	
L1D -66>	(84,85)	(69,0)	(67,7)	(72,1)	(65,2)	(68,9)	(10,5)	(75,4)	(-15,0)	(-1,19)	(124,4)	(24,0)	(-16,1)	(119,0)	(66,1)	(-17,2)	
L1D -65>	(84,98)	(-18,8)	(66,20)	(42,5)	(88,1)	(65,8)	(86,1)	(124,3)	(67,11)	(1,4)	(43,1)	(62,1)	(9,5)	(20,1)	(123,2)	(-1,3)	
L1D -64>	(84,70)	(-19,5)	(-17,0)	(8,0)	(42,1)	(63,0)	(71,0)	(-1,6)	(119,0)	(66,0)	(74,1)	(121,0)	(22,0)	(-47,0)	(72,0)	(1,0)	
L1D -63>	(84,125)	(-20,38)	(6,6)	(7,2)	(71,5)	(76,1)	(42,6)	(122,2)	(1,5)	(57,5)	(14,5)	(-18,1)	(-2,10)	(-1,54)	(120,7)	(63,9)	
L1D -62>	(-21,13)	(84,84)	(2,52)	(14,1)	(64,0)	(6,2)	(42,0)	(20,3)	(122,4)	(7,20)	(63,9)	(8,18)	(-19,4)	(73,11)	(-47,1)	(70,3)	
L1D -61>	(-22,12)	(84,113)	(118,6)	(42,8)	(70,1)	(-48,1)	(12,2)	(19,1)	(-21,10)	(43,7)	(5,24)	(-1,1)	(1,5)	(62,4)	(122,1)	(7,3)	
L1D -60>	(-23,3)	(84,69)	(70,0)	(69,1)	(42,1)	(61,12)	(-1,0)	(124,0)	(55,2)	(6,3)	(53,0)	(57,0)	(4,0)	(21,0)	(54,0)	(1,0)	
L1D -59>	(84,70)	(-24,17)	(42,9)	(56,2)	(16,1)	(-20,2)	(70,3)	(-15,3)	(-17,3)	(14,2)	(54,7)	(-1,1)	(67,1)	(55,11)	(61,7)	(57,4)	
L1D -58>	(84,99)	(1,29)	(42,26)	(100,13)	(5,6)	(59,15)	(-25,20)	(52,7)	(60,5)	(-2,20)	(-89,1)	(2,61)	(-87,15)	(71,17)	(61,19)	(54,41)	
L1D -57>	(84,67)	(-26,5)	(1,92)	(55,30)	(56,15)	(42,9)	(58,68)	(-25,7)	(15,22)	(-2,1)	(-17,8)	(-88,17)	(53,5)	(-13,5)	(63,7)	(54,34)	
L1D -56>	(84,39)	(-90,13)	(53,19)	(57,127)	(55,33)	(-1,11)	(59,41)	(73,9)	(52,1)	(54,32)	(69,12)	(65,8)	(62,6)	(58,67)	(77,8)	(42,7)	
L1D -55>	(-28,25)	(84,53)	(-50,3)	(51,14)	(52,12)	(42,13)	(53,26)	(56,4)	(13,30)	(54,8)	(60,5)	(46,24)	(57,5)	(-1,73)	(14,10)	(45,1)	
L1D -54>	(-29,10)	(1,4)	(49,9)	(50,12)	(10,39)	(42,18)	(52,1)	(-1,73)	(12,28)	(84,47)	(-3,60)	(44,41)	(57,86)	(69,22)	(-2,70)	(47,3)	
L1D -53>	(1,124)	(-30,2)	(44,2)	(48,13)	(42,13)	(55,7)	(84,15)	(-3,4)	(54,9)	(11,19)	(7,1)	(43,1)	(45,11)	(312,3)	(62,10)	(52,1)	
L1D -52>	(84,14)	(2,13)	(45,7)	(46,7)	(-1,28)	(42,20)	(80,21)	(55,11)	(78,1)	(-6,47)	(-31,36)	(41,9)	(10,68)	(11,6)	(8,8)	(-3,28)	
L1D -51>	(2,5)	(43,9)	(44,9)	(42,54)	(59,1)	(14,8)	(33,16)	(311,13)	(1,20)	(48,8)	(52,43)	(58,61)	(9,72)	(40,49)	(50,5)	(35,26)	
L1D -50>	(134,21)	(41,9)	(42,45)	(132,24)	(1,48)	(9,12)	(46,18)	(8,33)	(309,8)	(301,12)	(-57,19)	(-1,8)	(-6,4)	(39,52)	(49,1)	(68,3)	
L1D -49>	(7,17)	(39,9)	(40,8)	(1,90)	(133,31)	(42,12)	(38,1)	(310,21)	(2,114)	(50,23)	(47,3)	(-1,44)	(-93,3)	(52,36)	(48,28)	(8,97)	
L1D -48>	(6,74)	(37,34)	(38,5)	(42,21)	(35,2)	(4,1)	(-51,7)	(299,7)	(309,2)	(-1,10)	(130,2)	(52,2)	(41,5)	(51,41)	(3,8)	(7,14)	
L1D -47>	(5,35)	(35,2)	(36,16)	(42,8)	(52,5)	(45,12)	(3,6)	(48,17)	(41,3)	(43,78)	(34,1)	(-1,1)	(131,1)	(49,2)	(46,9)	(44,20)	
L1D -46>	(39,7)	(33,13)	(34,16)	(42,79)	(43,106)	(-1,53)	(50,74)	(4,38)	(32,1)	(49,18)	(1,6)	(45,59)	(-72,12)	(30,23)	(48,113)	(3,34)	
L1D -45>	(3,30)	(1,38)	(31,32)	(42,44)	(48,23)	(46,9)	(41,108)	(38,47)	(36,1)	(34,9)	(43,82)	(32,7)	(118,2)	(44,22)	(40,11)	(39,11)	
L1D -44>	(2,10)	(26,1)	(1,25)	(29,20)	(3,2)	(35,4)	(42,15)	(48,25)	(46,10)	(40,35)	(-1,10)	(41,52)	(47,28)	(33,12)	(44,111)	(43,11)	
L1D -43>	(1,10)	(44,9)	(3,2)	(27,6)	(28,9)	(42,18)	(40,101)	(4,10)	(38,1)	(-1,18)	(36,2)	(41,18)	(46,4)	(39,6)	(31,7)	(-2,22)	
L1D -42>	(41,127)	(-3,16)	(43,93)	(31,13)	(37,13)	(40,82)	(38,33)	(39,32)	(44,58)	(-93,1)	(50,21)	(32,6)	(45,29)	(-2,14)	(46,7)	(36,11)	
L1D -41>	(43,127)	(42,120)	(-15,14)	(1,88)	(29,54)	(53,29)	(40,97)	(49,48)	(44,19)	(-2,11)	(37,11)	(38,32)	(4,1)	(11,5)	(48,10)	(55,14)	
L1D -40>	(-1,1)	(58,1)	(42,15)	(41,3)	(2,1)	(70,3)	(-4,4)	(27,1)	(51,4)	(49,4)	(43,74)	(38,11)	(6,4)	(10,6)	(39,13)	(37,2)	
L1D -39>	(1,13)	(42,123)	(41,6)	(45,3)	(2,4)	(37,26)	(3,86)	(8,50)	(35,15)	(-10,44)	(50,33)	(38,29)	(4,6)	(25,9)	(43,1)	(-1,14)	
L1D -38>	(39,8)	(46,11)	(2,42)	(12,2)	(43,6)	(42,37)	(45,46)	(4,12)	(-1,22)	(41,9)	(40,9)	(21,25)	(37,47)	(54,22)	(3,15)	(122,10)	
L1D -37>	(47,12)	(38,17)	(42,75)	(-4,11)	(-35,45)	(50,29)	(-19,1)	(41,8)	(3,3)	(35,20)	(188,28)	(4,9)	(44,25)	(36,14)	(45,27)	(21,11)	
L1D -36>	(0,62)	(42,27)	(35,1)	(39,18)	(46,3)	(8,15)	(120,4)	(22,2)	(41,10)	(6,45)	(40,6)	(4,19)	(38,11)	(44,21)	(14,38)	(-6,3)	
L1D -35>	(36,16)	(42,57)	(49,12)	(41,14)	(-6,2)	(0,45)	(33,19)	(40,18)	(43,15)	(39,1)	(-2,10)	(119,2)	(19,29)	(14,5)	(-21,1)	(1,12)	
L1D -34>	(50,12)	(2,45)	(85,15)	(-7,5)	(42,70)	(-15,2)	(38,2)	(35,20)	(33,7)	(52,1)	(-1,19)	(118,1)	(41,5)	(1,9)	(32,20)	(30,2)	
L1D -33>	(51,13)	(34,49)	(42,51)	(31,1)	(-8,4)	(32,23)	(30,12)	(294,6)	(-1,28)	(35,2)	(12,3)	(25,23)	(16,7)	(332,7)	(-9,3)	(-23,5)	
L1D -32>	(-1,107)	(52,13)	(-10,5)	(44,3)	(-52,3)	(116,3)	(125,3)	(1,51)	(42,47)	(14,1)	(-9,7)	(72,41)	(73,4)	(35,9)	(31,21)	(33,3)	
L1D -31>	(1,19)	(53,6)	(42,18)	(-10,5)	(-21,2)	(3,67)	(123,4)	(33,11)	(28,2)	(32,1)	(11,1)	(2,36)	(-1,11)	(27,9)	(292,3)	(17,10)	
L1D -30>	(84,20)	(1,69)	(-12,3)	(54,6)	(29,33)	(123,9)	(3,24)	(41,3)	(42,48)	(28,1)	(-11,4)	(36,2)	(25,24)	(121,22)	(-1,12)	(31,10)	
L1D -29>	(1,23)	(84,1)	(-1,3)	(30,2)	(6,96)	(113,2)	(29,3)	(23,1)	(8,1)	(4,3)	(292,0)	(81,1)	(37,3)	(2,8)	(3,35)	(-92,12)	
L1D -28>	(84,6)	(-13,4)	(29,5)	(42,19)	(1,84)	(27,53)	(24,9)	(23,8)	(112,7)	(13,2)	(17,7)	(3,34)	(2,9)	(-2,2)	(69,1)	(-1,11)	
L1D -27>	(84,10)	(28,4)	(42,8)	(3,44)	(-15,9)	(1,97)	(26,23)	(31,1)	(24,12)	(-14,3)	(-1,6)	(8,64)	(111,4)	(27,21)	(79,60)	(2,44)	
L1D -26>	(-1,3)	(-42,1)	(1,107)	(25,48)	(42,16)	(11,5)	(2,41)	(110,4)	(21,6)	(29,2)	(28,4)	(12,3)	(14,11)	(3,41)	(23,9)	(-2,5)	
L1D -25>	(84,7)	(26,3)	(10,3)	(8,93)	(1,38)	(24,12)	(22,4)	(14,4)	(15,3)	(109,5)	(-96,6)	(3,13)	(2,24)	(23,15)	(-83,1)	(25,32)	
L1D -24>	(84,8)	(13,9)	(1,125)	(23,38)	(22,17)	(42,6)	(-61,11)	(21,10)	(15,6)	(2,16)	(-42,6)	(31,8)	(25,30)	(108,9)	(-62,1)	(3,34)	
L1D -23>	(9,2)	(11,2)	(8,1)	(19,7)	(1,8)	(22,13)	(31,1)	(-83,4)	(107,2)	(20,32)	(42,1)	(18,3)	(3,96)	(-64,1)	(21,55)	(2,14)	
L1D -22>	(-76,1)	(42,11)	(2,14)	(21,12)	(20,73)	(84,10)	(-64,10)	(-54,8)	(10,2)	(3,23)	(18,24)	(19,79)	(1,88)	(11,3)	(23,14)	(17,95)	
L1D -21>	(11,1)	(8,1)	(20,10)	(1,32)	(19,106)	(3,10)	(73,1)	(84,3)	(-42,1)	(-67,6)	(2,8)	(17,5)	(-83,0)	(16,3)	(4,23)	(18,26)	
L1D -20>	(104,1)	(20,85)	(4,2)	(84,10)	(19,10)	(1,26)	(15,4)	(-36,2)	(18,27)	(17,104)	(-83,4)	(3,21)	(2,4)	(16,4)	(-37,2)	(-65,1)	
L1D -19>	(84,15)	(43,1)	(20,13)	(1,43)	(18,16)	(-37,2)	(14,1)	(3,39)	(58,4)	(16,120)	(-83,2)	(17,116)	(2,21)	(15,18)	(103,6)	(72,4)	
L1D -18>	(13,1)	(93,1)	(-83,8)	(17,47)	(43,1)	(2,38)	(19,3)	(84,3)	(3,44)	(1,24)	(15,101)	(16,5)	(14,9)	(-67,0)	(-7,0)	(31,4)	
L1D -17>	(-27,1)	(84,3)	(4,1)	(18,3)	(25,6)	(60,1)	(2,48)	(1,89)	(101,3)	(16,22)	(13,19)	(14,88)	(15,106)	(3,46)	(-68,1)	(-83,6)	
L1D -16>	(11,2)	(84,7)	(8,2)	(12,4)	(-83,6)	(1,53)	(15,117)	(29,7)	(20,2)	(7,1)	(-72,1)	(13,68)	(2,89)	(14,18)	(3,43)	(-56,1)	
L1D -15>	(84,11)	(21,1)	(11,2)	(2,79)	(-83,1)	(100,1)	(1,44)	(27,2)	(14,5)	(3,83)	(13,69)	(18,1)	(30,2)	(-72,3)	(12,47)	(-56,1)	
L1D -14>	(25,1)	(24,0)	(1,28)	(2,36)	(-56,1)	(84,14)	(12,7)	(13,3)	(28,5)	(56,0)	(11,6)	(-83,1)	(10,28)	(19,2)	(-42,0)	(3,68)	
L1D -13>	(84,16)	(96,5)	(19,2)	(11,48)	(-9,1)	(10,26)	(1,39)	(12,29)	(23,2)	(25,1)	(-56,1)	(26,5)	(21,1)	(3,61)	(2,102)	(9,5)	
L1D -12>	(-10,3)	(17,1)	(10,31)	(-40,4)	(-16,2)	(3,82)	(11,7)	(1,80)	(2,40)	(27,2)	(24,8)	(-56,2)	(84,23)	(6,26)	(9,122)	(4,13)	
L1D -11>	(84,24)	(-92,2)	(15,1)	(5,1)	(-10,4)	(1,72)	(10,31)	(9,72)	(2,23)	(-75,3)	(8,45)	(22,5)	(4,5)	(17,1)	(3,81)	(7,5)	
L1D -10>	(-56,3)	(25,1)	(43,1)	(-94,4)	(4,25)	(1,35)	(3,68)	(94,9)	(20,6)	(2,59)	(9,49)	(-42,1)	(84,27)	(-75,4)	(8,7)	(7,54)	
L1D -9>	(84,20)	(-56,6)	(4,4)	(18,7)	(3,84)	(8,121)	(1,67)	(6,14)	(2,12)	(7,8)	(24,6)	(-94,7)	(13,1)	(11,7)	(5,46)	(23,2)	
L1D -8>	(24,1)	(-7,1)	(6,5)	(8,41)	(13,3)	(84,23)	(4,23)	(1,25)	(5,24)	(3,83)	(7,47)	(2,50)	(9,5)	(16,3)	(-56,2)	(-3,16)	
L1D -7>	(84,35)	(4,1)	(2,110)	(-42,2)	(1,123)	(6,17)	(-40,2)	(-56,6)	(-10,2)	(-94,7)	(10,1)	(100,3)	(14,6)	(9,2)	(33,1)	(3,115)	
L1D -6>	(-42,2)	(-56,7)	(-2,2)	(5,33)	(-94,2)	(-1,4)	(1,39)	(3,115)	(84,51)	(-12,1)	(-226,1)	(2,64)	(-92,4)	(-79,4)	(4,13)	(12,10)	
L1D -5>	(84,13)	(-18,1)	(5,2)	(-80,12)	(3,53)	(4,13)	(1,16)	(-1,77)	(10,3)	(8,1)	(2,87)	(-56,1)	(-14,4)	(-3,16)	(-2,1)	(-6,3)	
L1D -4>	(-11,13)	(-83,4)	(-1,78)	(84,9)	(-2,51)	(-3,16)	(3,79)	(1,11)	(-10,1)	(-94,1)	(-8,32)	(-16,3)	(-15,18)	(2,8)	(-5,16)	(-84,4)	
L1D -3>	(-7,39)	(-2,75)	(-3,96)	(-4,30)	(-9,15)	(2,9)	(-15,15)	(-112,1)	(-12,10)	(-5,15)	(-11,11)	(-8,22)	(6,21)	(-10,21)	(-13,10)	(-1,77)	
L1D -2>	(-4,30)	(-5,21)	(1,33)	(-11,27)	(-6,11)	(4,1)	(-1,96)	(-13,39)	(-14,10)	(-7,12)	(-12,8)	(-9,14)	(-10,12)	(-3,94)	(-2,52)	(-15,6)	
L1D -1>	(-1,88)	(-10,9)	(-18,1)	(-12,21)	(-4,41)	(-6,7)	(-7,5)	(-5,9)	(2,11)	(-8,5)	(-3,30)	(-15,20)	(-9,7)	(-2,68)	(-14,8)	(-13,17)	
L1D 0>	(1,9)	(0,115)	(-2,4)	(94,2)	(33,8)	(-89,1)	(-4,5)	(-71,3)	(-1,3)	(-73,2)	(-77,2)	(-79,1)	(3,4)	(-83,1)	(-85,2)	(46,2)	
L1D 1>	(84,4)	(-42,2)	(1,86)	(2,35)	(16,22)	(3,19)	(14,2)	(-41,5)	(5,12)	(8,4)	(18,4)	(4,5)	(-1,12)	(10,22)	(9,19)	(-12,1)	
L1D 2>	(8,1)	(78,2)	(-82,1)	(10,2)	(25,5)	(-2,19)	(1,12)	(20,2)	(2,4)	(5,18)	(-1,4)	(3,125)	(14,2)	(7,15)	(12,3)	(9,3)	
L1D 3>	(22,20)	(3,112)	(24,19)	(7,1)	(18,22)	(16,20)	(14,22)	(2,9)	(1,9)	(8,22)	(12,12)	(5,15)	(9,15)	(-2,29)	(20,13)	(10,23)	
L1D 4>	(1,14)	(-19,0)	(-12,25)	(84,5)	(-18,3)	(-3,32)	(-4,65)	(-92,13)	(10,6)	(-84,2)	(14,14)	(32,17)	(-1,25)	(23,13)	(-42,5)	(8,11)	
L1D 5>	(-3,49)	(-2,71)	(3,3)	(-88,14)	(-85,13)	(-19,1)	(39,4)	(56,1)	(2,1)	(11,6)	(8,7)	(-1,116)	(-4,36)	(91,2)	(-42,4)	(84,4)	
L1D 6>	(-42,4)	(-2,21)	(-3,22)	(-6,43)	(-12,1)	(74,1)	(-14,31)	(-87,12)	(-98,30)	(2,11)	(84,6)	(-85,8)	(-1,74)	(-5,5)	(-4,27)	(8,5)	
L1D 7>	(-4,4)	(-3,87)	(-10,2)	(-2,37)	(-19,1)	(-87,6)	(-5,2)	(13,7)	(84,3)	(1,1)	(-1,19)	(-15,0)	(-60,0)	(-6,1)	(-42,2)	(-159,0)	
L1D 8>	(-87,10)	(-4,19)	(-3,110)	(-20,1)	(-8,48)	(-2,71)	(-5,21)	(4,4)	(17,19)	(-1,125)	(-84,5)	(53,2)	(8,36)	(-7,3)	(84,15)	(-23,2)	
L1D 9>	(11,1)	(-87,3)	(-3,114)	(5,4)	(-4,36)	(-8,49)	(-6,9)	(-42,8)	(-5,21)	(84,12)	(-20,1)	(-2,91)	(-1,51)	(-23,2)	(32,6)	(76,9)	
L1D 10>	(84,5)	(-5,9)	(-87,16)	(-42,13)	(-2,68)	(-3,77)	(-4,39)	(-1,57)	(7,1)	(-7,9)	(74,5)	(-9,117)	(77,14)	(-8,33)	(76,2)	(31,10)	
L1D 11>	(-42,4)	(-8,105)	(-3,56)	(-94,6)	(-10,91)	(-5,3)	(-9,19)	(-1,27)	(-2,10)	(41,4)	(-4,5)	(-99,4)	(-86,5)	(-29,1)	(84,7)	(82,5)	
L1D 12>	(-9,114)	(-95,16)	(84,9)	(-3,126)	(-5,90)	(74,25)	(-2,14)	(-11,61)	(-1,95)	(14,1)	(-88,29)	(-10,119)	(-4,70)	(1,8)	(72,7)	(-42,9)	
L1D 13>	(-3,42)	(-10,86)	(73,3)	(12,1)	(-9,44)	(-22,2)	(-11,23)	(-12,14)	(-1,56)	(84,19)	(-4,4)	(-85,3)	(-96,5)	(-2,12)	(-103,15)	(-42,5)	
L1D 14>	(-97,20)	(-11,88)	(71,2)	(-2,63)	(-12,73)	(-5,46)	(-10,9)	(-23,1)	(-3,3)	(-19,5)	(-13,55)	(-1,26)	(13,2)	(-87,5)	(84,15)	(1,4)	
L1D 15>	(-12,89)	(-85,2)	(-13,29)	(-86,5)	(-29,1)	(15,5)	(-4,1)	(-14,4)	(-42,3)	(-1,11)	(-2,3)	(84,4)	(-98,2)	(-11,34)	(-28,1)	(-3,17)	
L1D 16>	(12,0)	(-13,33)	(-12,17)	(-3,5)	(-42,5)	(-14,19)	(84,1)	(-1,36)	(-15,65)	(-2,2)	(68,1)	(-56,0)	(-106,0)	(-108,0)	(82,0)	(70,5)	
L1D 17>	(8,1)	(-3,8)	(-71,1)	(-15,7)	(-4,1)	(-16,3)	(68,8)	(-12,0)	(-1,23)	(69,12)	(84,5)	(14,0)	(-14,33)	(-13,15)	(-2,105)	(-100,1)	
L1D 18>	(7,1)	(8,3)	(-2,5)	(-5,2)	(10,1)	(-17,37)	(-1,31)	(13,1)	(-100,3)	(68,9)	(73,2)	(-42,5)	(-16,19)	(-15,77)	(-3,16)	(-14,9)	
L1D 19>	(65,3)	(66,2)	(-102,2)	(-54,1)	(-18,46)	(-1,9)	(84,17)	(-75,1)	(1,1)	(-16,100)	(-42,8)	(-3,14)	(-2,8)	(-17,18)	(-4,5)	(-15,42)	
L1D 20>	(-103,26)	(2,1)	(-20,83)	(-3,27)	(-18,78)	(-42,10)	(-16,7)	(-19,28)	(-1,13)	(-4,2)	(-2,4)	(84,22)	(73,3)	(1,12)	(-17,93)	(64,20)	
L1D 21>	(-17,2)	(-70,2)	(70,3)	(-6,1)	(1,1)	(-20,15)	(-1,26)	(84,34)	(-7,1)	(-42,10)	(-2,7)	(-18,71)	(65,1)	(-3,10)	(-19,14)	(61,0)	
L1D 22>	(-105,15)	(1,1)	(-19,82)	(71,1)	(-9,1)	(3,3)	(-3,7)	(-21,52)	(-1,22)	(-20,42)	(-87,1)	(-104,1)	(84,9)	(-2,4)	(-5,1)	(-15,1)	
L1D 23>	(62,37)	(2,2)	(-15,4)	(69,3)	(-22,23)	(-1,8)	(-10,2)	(-42,24)	(84,81)	(-3,30)	(-20,111)	(-21,44)	(-11,6)	(-2,45)	(-106,1)	(1,8)	
L1D 24>	(-107,11)	(-13,2)	(-42,9)	(149,1)	(-2,7)	(-116,1)	(-23,109)	(-1,36)	(60,9)	(-12,3)	(84,10)	(-3,6)	(-21,40)	(-22,23)	(69,1)	(-85,1)	
L1D 25>	(3,4)	(-14,1)	(60,2)	(81,3)	(84,31)	(-24,9)	(-2,95)	(-1,3)	(-11,2)	(-15,1)	(-42,7)	(-22,17)	(-3,13)	(-40,1)	(-23,27)	(1,7)	
L1D 26>	(83,14)	(-85,2)	(-42,76)	(15,18)	(-23,78)	(-24,29)	(-11,3)	(1,17)	(-25,50)	(-1,29)	(-16,6)	(3,1)	(84,41)	(69,9)	(-41,17)	(-3,9)	
L1D 27>	(-2,44)	(84,101)	(14,1)	(1,27)	(-1,25)	(-20,7)	(-26,22)	(-5,4)	(83,6)	(-42,41)	(-25,41)	(-4,11)	(-24,47)	(-3,29)	(-18,4)	(-19,3)	
L1D 28>	(-111,3)	(1,17)	(-42,67)	(3,1)	(-3,7)	(-27,27)	(14,2)	(-1,14)	(-26,12)	(-56,1)	(84,54)	(-2,6)	(85,29)	(-25,29)	(-10,18)	(-4,2)	
L1D 29>	(84,101)	(1,35)	(-42,9)	(27,1)	(-28,8)	(8,3)	(-1,3)	(-56,13)	(10,3)	(-81,1)	(-26,18)	(-2,9)	(-27,10)	(52,1)	(81,2)	(-7,2)	
L1D 30>	(19,1)	(-29,41)	(1,104)	(-42,29)	(10,8)	(11,2)	(13,4)	(-1,54)	(-81,63)	(-56,16)	(84,20)	(-27,22)	(-22,52)	(2,29)	(-41,11)	(-10,2)	
L1D 31>	(84,66)	(-82,15)	(1,29)	(-42,27)	(-21,1)	(-30,2)	(-28,1)	(-27,2)	(7,1)	(10,9)	(-41,0)	(8,5)	(9,5)	(-1,40)	(-29,2)	(-5,1)	
L1D 32>	(52,38)	(-42,53)	(-1,7)	(-41,1)	(-126,10)	(1,3)	(21,7)	(-33,1)	(-31,8)	(-29,36)	(-27,33)	(-92,6)	(3,10)	(-121,17)	(-25,90)	(0,10)	
L1D 33>	(84,100)	(-1,100)	(1,44)	(-42,82)	(3,2)	(-29,1)	(-56,23)	(8,1)	(-15,6)	(-2,4)	(80,3)	(24,2)	(14,5)	(-136,3)	(7,1)	(81,2)	
L1D 34>	(84,12)	(-42,98)	(7,3)	(-41,7)	(11,3)	(-56,28)	(20,1)	(-8,5)	(3,5)	(-35,7)	(10,1)	(-1,2)	(-14,2)	(1,32)	(2,20)	(263,1)	
L1D 35>	(84,43)	(-15,83)	(-42,34)	(11,1)	(21,5)	(-56,27)	(1,24)	(-39,1)	(8,2)	(2,1)	(83,4)	(-7,4)	(-13,4)	(5,2)	(6,9)	(-21,3)	
L1D 36>	(-14,104)	(9,11)	(-42,46)	(1,34)	(2,1)	(10,1)	(-56,4)	(-38,2)	(-81,1)	(84,84)	(3,13)	(5,6)	(-6,3)	(-37,1)	(-39,5)	(-40,3)	
L1D 37>	(84,23)	(-13,66)	(4,4)	(1,14)	(-32,5)	(-42,32)	(-10,1)	(2,2)	(-38,7)	(-56,16)	(5,1)	(3,11)	(7,16)	(-39,2)	(-11,2)	(-41,3)	
L1D 38>	(-12,39)	(84,74)	(1,59)	(-98,1)	(3,16)	(-42,127)	(-2,2)	(-45,19)	(-56,21)	(94,7)	(-41,7)	(-44,14)	(-43,20)	(-1,17)	(-59,3)	(-10,5)	
L1D 39>	(84,107)	(-11,104)	(94,5)	(-42,94)	(2,5)	(3,5)	(-46,1)	(5,4)	(1,64)	(-7,26)	(-56,36)	(-36,6)	(-43,29)	(-44,8)	(-40,14)	(-9,19)	
L1D 40>	(-10,31)	(-42,104)	(1,11)	(-45,8)	(-15,3)	(-4,1)	(2,1)	(4,5)	(-2,14)	(-1,10)	(3,4)	(-56,3)	(-3,9)	(-43,78)	(-41,1)	(-47,6)	
L1D 41>	(-56,5)	(-1,10)	(-42,77)	(-11,1)	(-2,5)	(-46,1)	(1,3)	(-8,3)	(-41,1)	(-45,3)	(-9,10)	(-10,5)	(-3,3)	(-43,4)	(2,2)	(-44,5)	
L1D 42>	(-8,82)	(0,5)	(-1,40)	(-32,8)	(84,74)	(-14,3)	(1,24)	(16,1)	(-42,37)	(-56,32)	(-12,2)	(-41,67)	(-40,35)	(-43,42)	(-2,62)	(-27,2)	
L1D 43>	(-7,17)	(-33,1)	(-42,106)	(1,16)	(-39,7)	(13,10)	(3,11)	(-44,12)	(12,5)	(9,11)	(-40,17)	(10,6)	(-41,16)	(2,2)	(7,7)	(0,4)	
L1D 44>	(-6,31)	(-42,111)	(-2,1)	(1,7)	(-40,5)	(-41,9)	(32,4)	(84,27)	(2,4)	(-43,3)	(4,4)	(-44,28)	(3,18)	(-11,8)	(7,1)	(10,1)	
L1D 45>	(-5,50)	(84,52)	(1,10)	(-42,79)	(-43,4)	(-2,1)	(2,3)	(-56,24)	(-46,9)	(4,1)	(85,2)	(-45,1)	(3,3)	(-41,3)	(81,1)	(8,2)	
L1D 46>	(-4,64)	(-42,65)	(-19,1)	(6,1)	(-56,14)	(2,1)	(84,108)	(-1,7)	(1,1)	(82,2)	(4,13)	(-44,1)	(83,1)	(-45,7)	(-2,2)	(-39,1)	
L1D 47>	(81,83)	(84,54)	(-42,39)	(-4,2)	(-21,1)	(2,18)	(6,1)	(-56,43)	(-3,25)	(-118,1)	(1,24)	(-2,1)	(83,3)	(-46,11)	(-1,15)	(8,11)	
L1D 48>	(82,14)	(2,83)	(84,7)	(-42,56)	(4,12)	(-56,29)	(-44,10)	(-45,9)	(3,13)	(-47,12)	(-2,6)	(8,1)	(-9,15)	(-1,45)	(-46,7)	(-6,1)	
L1D 49>	(83,40)	(84,64)	(-42,28)	(7,0)	(-6,1)	(2,1)	(-1,9)	(-56,2)	(1,1)	(-29,1)	(15,0)	(-2,9)	(-45,1)	(-46,6)	(-5,10)	(-44,1)	
L1D 50>	(84,37)	(-10,34)	(-6,2)	(6,10)	(-44,1)	(-42,126)	(-43,1)	(3,17)	(-56,5)	(-49,16)	(-46,1)	(-2,11)	(72,5)	(1,9)	(-3,5)	(2,7)	
L1D 51>	(1,23)	(-42,123)	(-17,3)	(-8,14)	(-55,1)	(-56,51)	(3,8)	(2,30)	(-48,26)	(-11,1)	(4,1)	(-47,19)	(-4,19)	(-1,3)	(247,2)	(-12,1)	
L1D 52>	(-10,21)	(-83,55)	(-62,67)	(-19,4)	(-42,62)	(1,85)	(-53,35)	(-16,1)	(-56,81)	(-52,32)	(154,41)	(32,8)	(-50,16)	(4,10)	(-54,17)	(70,7)	
L1D 53>	(-42,32)	(-10,26)	(3,3)	(-56,70)	(-3,1)	(-57,5)	(-2,18)	(-44,4)	(-54,1)	(-8,9)	(-58,13)	(-7,10)	(1,8)	(-55,6)	(-4,9)	(-65,1)	
L1D 54>	(-53,125)	(-9,2)	(-42,68)	(-11,10)	(-57,2)	(1,6)	(-56,104)	(-3,3)	(-10,7)	(-1,22)	(-58,2)	(-60,9)	(2,37)	(0,2)	(-55,1)	(-2,22)	
L1D 55>	(-1,13)	(2,2)	(-58,3)	(-12,4)	(-9,1)	(-56,113)	(-42,42)	(1,18)	(-16,3)	(-137,4)	(-2,9)	(-139,8)	(-10,3)	(-3,2)	(-4,8)	(38,1)	
L1D 56>	(-42,106)	(-27,4)	(-13,5)	(-57,10)	(-1,29)	(-56,58)	(-58,27)	(-99,6)	(-12,5)	(-122,5)	(2,10)	(1,3)	(-3,11)	(-143,1)	(-59,20)	(-9,27)	
L1D 57>	(-42,6)	(-52,1)	(23,1)	(-3,2)	(-56,114)	(15,1)	(8,3)	(16,1)	(13,3)	(5,3)	(21,2)	(10,2)	(-53,2)	(7,3)	(-144,3)	(-54,6)	
L1D 58>	(-57,12)	(-42,12)	(19,1)	(-56,68)	(-1,0)	(1,16)	(-121,0)	(-51,0)	(-15,1)	(-13,0)	(-124,0)	(-3,1)	(-39,0)	(-2,3)	(3,0)	(-14,0)	
L1D 59>	(-42,25)	(-123,0)	(8,2)	(-56,74)	(3,0)	(-63,1)	(-55,0)	(25,2)	(-83,4)	(-61,0)	(9,0)	(13,0)	(-29,0)	(-58,4)	(7,0)	(10,1)	
L1D 60>	(-17,3)	(-42,48)	(-56,70)	(-7,1)	(-1,16)	(-59,0)	(-61,2)	(24,78)	(-83,3)	(-2,1)	(-3,0)	(-58,19)	(-51,0)	(3,1)	(-52,1)	(-8,4)	
L1D 61>	(1,69)	(-18,2)	(-42,13)	(-56,32)	(-9,1)	(-4,4)	(23,22)	(42,1)	(-60,1)	(0,44)	(-55,2)	(-57,2)	(2,0)	(-1,2)	(3,1)	(-83,1)	
L1D 62>	(-42,74)	(-56,78)	(-5,2)	(-11,2)	(-61,3)	(-19,2)	(5,10)	(22,119)	(1,41)	(-57,8)	(-54,25)	(-18,12)	(2,5)	(-53,2)	(-60,3)	(-59,3)	
L1D 63>	(-20,7)	(-42,36)	(-56,88)	(-6,20)	(-13,2)	(-62,26)	(1,5)	(21,13)	(-57,1)	(0,10)	(42,16)	(-61,4)	(-83,2)	(-2,21)	(-59,1)	(2,13)	
L1D 64>	(6,1)	(-42,47)	(-56,100)	(-7,4)	(-15,1)	(-92,4)	(20,27)	(-55,8)	(-199,3)	(-83,1)	(7,120)	(-6,7)	(-58,22)	(5,8)	(-1,3)	(-2,2)	
L1D 65>	(-42,9)	(-22,2)	(-56,44)	(-8,5)	(-63,1)	(42,5)	(1,12)	(-43,1)	(20,118)	(0,5)	(19,45)	(-92,14)	(-58,13)	(55,1)	(-66,5)	(-67,3)	
L1D 66>	(-67,86)	(1,43)	(-23,4)	(-56,99)	(-19,3)	(-9,6)	(-92,4)	(-1,23)	(-42,48)	(0,1)	(-58,5)	(18,78)	(-83,2)	(-55,4)	(17,4)	(-118,2)	
L1D 67>	(1,115)	(-42,23)	(-68,27)	(-24,2)	(-10,35)	(-56,52)	(-9,2)	(-57,18)	(-92,4)	(-1,30)	(-66,1)	(42,12)	(17,12)	(0,12)	(3,3)	(-37,1)	
L1D 68>	(1,34)	(-42,8)	(2,1)	(-56,37)	(-92,4)	(16,78)	(0,4)	(13,7)	(-69,34)	(-1,3)	(-23,0)	(-83,28)	(17,3)	(15,41)	(5,33)	(-55,10)	
L1D 69>	(1,60)	(-71,3)	(-70,3)	(-83,1)	(-56,33)	(39,2)	(-92,12)	(-26,1)	(42,4)	(-42,2)	(-66,0)	(3,0)	(-1,3)	(15,113)	(-67,0)	(-57,3)	
L1D 70>	(-71,26)	(1,4)	(-68,1)	(-56,28)	(-92,10)	(-66,1)	(-1,3)	(0,28)	(40,1)	(-91,1)	(15,1)	(3,5)	(14,113)	(13,61)	(-42,11)	(-57,7)	
L1D 71>	(1,29)	(15,2)	(14,19)	(-24,0)	(-56,25)	(-14,2)	(-92,1)	(-83,4)	(42,2)	(-42,29)	(-72,7)	(41,1)	(18,4)	(-1,0)	(12,5)	(13,89)	
L1D 72>	(4,1)	(1,31)	(-15,14)	(-56,47)	(-92,7)	(-1,25)	(-83,4)	(-73,48)	(12,92)	(0,14)	(13,4)	(-42,16)	(5,4)	(11,1)	(-58,4)	(15,5)	
L1D 73>	(-72,22)	(10,12)	(-74,40)	(1,106)	(-56,58)	(-16,18)	(-92,44)	(42,9)	(-76,57)	(9,2)	(12,16)	(16,4)	(-118,2)	(11,113)	(-75,4)	(-57,12)	
L1D 74>	(1,30)	(-75,113)	(-94,5)	(-17,7)	(-56,107)	(-92,31)	(-74,11)	(8,77)	(11,75)	(-68,9)	(0,1)	(-83,40)	(-76,13)	(-39,6)	(10,75)	(-1,15)	
L1D 75>	(-74,3)	(1,45)	(-94,27)	(-76,4)	(-56,13)	(-18,2)	(-92,22)	(-38,1)	(-17,1)	(42,5)	(-73,0)	(10,36)	(-1,3)	(9,72)	(8,11)	(-57,8)	
L1D 76>	(6,1)	(1,2)	(-79,0)	(-77,14)	(-94,0)	(-1,1)	(-78,1)	(-56,15)	(-92,9)	(-66,0)	(8,73)	(9,4)	(4,1)	(0,6)	(-39,4)	(43,0)	
L1D 77>	(1,19)	(-56,10)	(-92,17)	(7,95)	(-94,14)	(3,4)	(42,3)	(-76,22)	(-78,1)	(-19,2)	(4,12)	(-74,2)	(-83,14)	(-79,3)	(-1,9)	(43,1)	
L1D 78>	(6,45)	(-76,26)	(1,4)	(-94,5)	(-56,7)	(-92,10)	(0,5)	(2,76)	(-77,13)	(8,22)	(-68,1)	(-79,33)	(3,48)	(4,2)	(12,4)	(-75,13)	
L1D 79>	(-37,1)	(1,84)	(-80,3)	(-94,14)	(-83,1)	(-56,16)	(-92,6)	(2,1)	(-90,2)	(7,4)	(5,100)	(-76,18)	(-81,3)	(3,14)	(10,3)	(6,64)	
L1D 80>	(-81,68)	(-78,0)	(-79,0)	(-94,1)	(-104,0)	(-86,0)	(-56,0)	(-83,0)	(2,0)	(-77,0)	(-76,0)	(-84,0)	(4,8)	(1,0)	(3,0)	(-82,0)	
L1D 81>	(-78,6)	(-77,1)	(-82,102)	(-94,2)	(-132,5)	(10,0)	(1,3)	(-120,1)	(-79,0)	(-92,2)	(-84,0)	(3,3)	(-85,3)	(4,0)	(-1,2)	(-83,3)	
L1D 82>	(-80,27)	(2,104)	(-130,32)	(-94,10)	(1,1)	(-56,3)	(-92,31)	(-93,42)	(-1,11)	(-83,105)	(-2,16)	(-84,5)	(-85,125)	(4,24)	(-86,99)	(-121,24)	
L1D 83>	(-82,113)	(1,25)	(-85,89)	(-84,39)	(-94,95)	(-3,59)	(-2,1)	(-92,38)	(-133,50)	(8,16)	(-80,29)	(-96,25)	(-1,40)	(-86,70)	(-125,15)	(-87,113)	
L1D 84>	(-83,66)	(-85,16)	(-87,5)	(-82,30)	(0,1)	(1,4)	(-76,6)	(-2,3)	(-74,7)	(-66,6)	(-93,7)	(-81,23)	(-86,7)	(-123,2)	(-88,6)	(-1,6)	
L1D 85>	(-82,35)	(1,7)	(-87,12)	(-94,8)	(-89,10)	(11,1)	(-127,16)	(-83,69)	(-75,3)	(-4,14)	(8,3)	(-128,13)	(-1,2)	(-86,4)	(-2,12)	(-88,4)	
L1D 86>	(-94,7)	(-87,17)	(-60,1)	(-80,0)	(-77,1)	(-129,1)	(-2,18)	(-1,1)	(-3,0)	(-92,0)	(-88,2)	(-83,75)	(-131,11)	(-110,0)	(-76,9)	(9,1)	
L1D 87>	(-94,78)	(1,34)	(-85,76)	(-92,41)	(-3,6)	(35,8)	(42,3)	(-1,19)	(0,16)	(-104,6)	(-4,16)	(11,1)	(-90,9)	(-93,27)	(6,31)	(-91,5)	
L1D 88>	(-94,88)	(1,9)	(-1,6)	(32,17)	(2,3)	(-90,1)	(-92,18)	(36,3)	(-85,10)	(-72,2)	(4,3)	(-73,16)	(-93,17)	(0,11)	(-213,6)	(-6,8)	
L1D 89>	(-94,85)	(1,9)	(-82,4)	(-92,36)	(37,5)	(42,3)	(-85,48)	(-90,15)	(-1,34)	(2,5)	(-112,7)	(-84,1)	(-91,14)	(-8,1)	(-87,117)	(-93,20)	
L1D 90>	(-94,117)	(-2,1)	(32,76)	(-92,61)	(-91,18)	(-5,10)	(-85,5)	(-122,6)	(-6,4)	(-90,11)	(-95,13)	(3,23)	(-93,36)	(-215,2)	(-1,23)	(0,9)	
L1D 91>	(-94,120)	(1,11)	(2,1)	(-92,106)	(-86,19)	(3,29)	(-10,11)	(-5,15)	(-96,11)	(-1,19)	(-3,22)	(-9,10)	(-2,27)	(-6,4)	(-4,10)	(-93,16)	
L1D 92>	(-5,7)	(-94,74)	(1,11)	(-8,2)	(3,25)	(-95,20)	(-92,5)	(-91,8)	(-86,1)	(-7,4)	(6,1)	(-3,6)	(-1,12)	(-11,1)	(-93,12)	(2,7)	
L1D 93>	(-94,70)	(-96,15)	(-2,14)	(-92,60)	(-90,5)	(-95,7)	(-1,8)	(-4,1)	(-87,0)	(-211,1)	(14,1)	(-9,2)	(13,2)	(-11,0)	(-3,2)	(1,3)	
L1D 94>	(-93,109)	(-94,74)	(-1,8)	(32,24)	(24,1)	(-92,99)	(11,1)	(-83,4)	(10,11)	(-95,6)	(1,6)	(-91,9)	(9,2)	(-3,13)	(-2,13)	(-4,13)	
L1D 95>	(-94,90)	(13,1)	(-92,11)	(8,1)	(4,1)	(1,3)	(-85,14)	(-93,8)	(-91,0)	(2,1)	(11,2)	(7,2)	(-87,5)	(-173,0)	(-1,1)	(-89,0)	
L1D 96>	(15,0)	(-94,64)	(-3,2)	(-97,2)	(-92,4)	(-11,0)	(-10,6)	(-96,0)	(-2,1)	(-85,0)	(-4,3)	(-93,9)	(-1,11)	(-86,0)	(-87,0)	(1,3)	
L1D 97>	(23,2)	(-94,106)	(3,0)	(-2,3)	(1,6)	(-92,2)	(13,0)	(-97,1)	(8,0)	(-95,0)	(-96,2)	(-209,0)	(-93,9)	(-3,8)	(-13,0)	(-85,2)	
L1D 98>	(-85,4)	(-94,90)	(-93,1)	(-13,2)	(-92,7)	(-39,2)	(-12,3)	(-95,39)	(-99,3)	(-96,8)	(-91,12)	(-3,2)	(-97,13)	(1,5)	(-1,25)	(2,13)	
L1D 99>	(-94,83)	(-4,10)	(-9,1)	(-92,12)	(-6,1)	(-84,4)	(-2,13)	(-95,0)	(-98,6)	(1,4)	(-87,19)	(2,2)	(-15,2)	(3,3)	(-90,17)	(-1,19)	
L1D 100>	(-94,123)	(-5,7)	(-11,3)	(-92,70)	(-99,126)	(-7,3)	(-15,6)	(-12,3)	(-97,55)	(-1,1)	(32,1)	(-98,11)	(-96,63)	(1,11)	(-86,32)	(-93,10)	
L1D 101>	(-16,1)	(-94,117)	(-13,1)	(-100,3)	(-6,3)	(-8,3)	(-92,64)	(10,13)	(32,27)	(1,3)	(-86,8)	(-97,11)	(-2,22)	(-1,16)	(-17,6)	(-98,23)	
L1D 102>	(-7,3)	(19,2)	(-94,110)	(-92,31)	(-93,1)	(-9,2)	(-97,2)	(-98,1)	(-1,5)	(-16,0)	(-131,0)	(-100,16)	(-18,0)	(-2,3)	(-85,1)	(1,3)	
L1D 103>	(-94,28)	(1,1)	(-17,1)	(-92,5)	(-10,0)	(3,1)	(-42,2)	(-102,4)	(18,0)	(-101,0)	(-18,1)	(-100,1)	(5,109)	(-99,9)	(-19,1)	(-85,2)	
L1D 104>	(-94,80)	(-92,49)	(-23,1)	(-11,3)	(-9,5)	(-19,3)	(-93,1)	(-86,1)	(-1,12)	(-105,0)	(-3,7)	(2,30)	(-2,2)	(-100,1)	(-98,0)	(-101,1)	
L1D 105>	(-94,78)	(-10,3)	(-92,16)	(-12,6)	(-102,1)	(-42,9)	(-25,1)	(94,0)	(226,0)	(3,8)	(-21,2)	(-1,0)	(-58,1)	(-101,0)	(-100,0)	(1,1)	
L1D 106>	(-94,72)	(-27,1)	(-92,32)	(-11,4)	(-100,3)	(2,1)	(-20,0)	(-2,4)	(-26,0)	(-21,2)	(3,2)	(-99,7)	(-83,1)	(-60,1)	(-22,3)	(-84,1)	
L1D 107>	(-12,14)	(-94,14)	(-15,30)	(-92,33)	(-14,5)	(-42,45)	(-23,9)	(-61,1)	(-88,2)	(2,18)	(-93,13)	(-87,48)	(-106,24)	(-82,3)	(-22,7)	(-60,1)	
L1D 108>	(-94,78)	(-15,11)	(-92,89)	(-83,102)	(2,11)	(-62,1)	(-109,1)	(-81,3)	(-42,1)	(-85,1)	(-13,1)	(-24,29)	(-82,18)	(-106,13)	(-100,6)	(-105,4)	
L1D 109>	(-14,19)	(-94,6)	(-92,30)	(-16,6)	(-42,104)	(-82,10)	(-83,14)	(-106,8)	(-6,5)	(-93,1)	(2,5)	(93,10)	(-108,2)	(-24,24)	(-110,1)	(-89,16)	
L1D 110>	(-94,86)	(-17,4)	(-44,26)	(2,6)	(-101,1)	(-1,6)	(-85,4)	(-108,11)	(-111,3)	(-42,13)	(-104,6)	(-92,55)	(-100,8)	(-84,11)	(-88,4)	(-8,4)	
L1D 111>	(-94,11)	(-92,50)	(-18,7)	(-43,30)	(-42,73)	(-104,4)	(-16,6)	(-83,8)	(-66,1)	(-110,3)	(-85,3)	(-112,4)	(-99,6)	(-40,6)	(-64,6)	(-93,13)	
L1D 112>	(-94,70)	(-92,46)	(-19,5)	(-42,1)	(-12,2)	(92,1)	(-20,7)	(-86,2)	(-87,2)	(-113,7)	(-3,1)	(-1,5)	(-83,4)	(-18,1)	(-68,1)	(-103,1)	
L1D 113>	(-94,9)	(-92,12)	(-20,2)	(-47,15)	(-42,41)	(91,1)	(3,1)	(-83,80)	(-46,1)	(-105,2)	(-69,2)	(-67,7)	(89,1)	(93,1)	(-40,2)	(-14,3)	
L1D 114>	(-81,105)	(-92,29)	(-100,10)	(-43,5)	(-16,5)	(-42,40)	(-104,1)	(-56,11)	(-94,67)	(2,6)	(91,5)	(-40,3)	(-68,7)	(-103,3)	(-115,3)	(-45,5)	
L1D 115>	(-82,59)	(-94,7)	(-56,21)	(-92,9)	(-45,11)	(-42,58)	(-43,6)	(92,3)	(-18,6)	(8,1)	(-22,4)	(-222,1)	(-1,45)	(3,8)	(2,13)	(-99,5)	
L1D 116>	(-92,84)	(-23,3)	(-42,29)	(92,3)	(-20,7)	(-56,35)	(1,7)	(93,14)	(-47,6)	(2,2)	(-100,3)	(-43,1)	(106,2)	(-1,10)	(0,12)	(-116,7)	
L1D 117>	(-56,63)	(-24,2)	(-92,5)	(15,1)	(-42,44)	(-80,1)	(-43,5)	(-69,1)	(8,1)	(-1,4)	(-116,28)	(-22,6)	(-46,5)	(-94,3)	(105,1)	(-45,1)	
L1D 118>	(-69,29)	(-92,22)	(-42,10)	(11,3)	(-24,4)	(-56,11)	(-105,1)	(92,1)	(-10,14)	(2,1)	(-70,3)	(-117,21)	(-99,1)	(-116,3)	(-73,1)	(15,2)	
L1D 119>	(-92,6)	(-26,3)	(-69,21)	(-15,1)	(-9,15)	(-42,19)	(-56,72)	(46,1)	(-222,1)	(-4,13)	(-118,29)	(-54,1)	(15,1)	(1,0)	(1,0)	(1,0)	
L1D 120>	(-70,7)	(-29,17)	(-100,5)	(-8,15)	(-56,19)	(-42,11)	(3,6)	(-3,1)	(8,1)	(2,4)	(-53,1)	(-119,17)	(-92,38)	(-28,5)	(-54,6)	(-1,7)	
L1D 121>	(3,1)	(-120,18)	(-56,9)	(-92,4)	(-7,2)	(-42,2)	(-3,1)	(-2,7)	(-8,11)	(-5,66)	(-6,3)	(1,0)	(1,0)	(1,0)	(1,0)	(1,0)	
L1D 122>	(-121,77)	(-12,1)	(-6,4)	(-72,1)	(-1,0)	(-56,6)	(-4,0)	(-42,2)	(3,29)	(-57,1)	(-29,121)	(-58,0)	(2,0)	(-96,1)	(-92,0)	(-107,2)	
L1D 123>	(-56,59)	(-47,15)	(-42,25)	(-57,7)	(-20,15)	(-94,64)	(14,14)	(-122,6)	(18,1)	(-58,2)	(-124,3)	(-92,1)	(1,0)	(1,0)	(1,0)	(1,0)	
L1D 124>	(-92,6)	(-46,15)	(-42,17)	(2,1)	(-1,3)	(-94,33)	(-56,54)	(-58,1)	(-106,28)	(15,1)	(-30,3)	(-60,3)	(19,6)	(-15,1)	(16,2)	(1,0)	
L1D 125>	(-1,53)	(-56,76)	(-94,6)	(-31,1)	(-45,15)	(-42,9)	(-83,1)	(-15,8)	(-2,15)	(-123,2)	(3,8)	(-85,1)	(-77,1)	(-75,2)	(15,1)	(-96,1)	
L1D 126>	(-94,8)	(-14,15)	(-20,14)	(-86,6)	(-1,116)	(-42,24)	(-98,6)	(20,1)	(14,2)	(12,1)	(-84,1)	(-56,1)	(11,1)	(1,0)	(1,0)	(1,0)	
L1D 127>	(-56,60)	(-42,16)	(-80,1)	(-13,15)	(-77,2)	(-43,3)	(-85,2)	(1,0)	(1,0)	(1,0)	(1,0)	(1,0)	(1,0)	(1,0)	(1,0)	(1,0)	
L1D 128>	(-85,3)	(-44,4)	(-43,1)	(92,1)	(-1,10)	(-42,12)	(-98,11)	(-86,1)	(-84,6)	(-100,1)	(-12,5)	(2,1)	(-138,1)	(-20,1)	(-56,1)	(1,0)	
L1D 129>	(1,9)	(-56,60)	(93,5)	(-11,15)	(-42,15)	(2,75)	(-45,2)	(-85,2)	(4,16)	(6,3)	(-82,1)	(-2,9)	(-84,2)	(3,10)	(-15,1)	(8,11)	
L1D 130>	(-84,10)	(-106,1)	(-85,17)	(32,101)	(-103,0)	(-1,2)	(9,0)	(-10,0)	(-56,0)	(66,0)	(-42,0)	(8,0)	(1,0)	(1,0)	(1,0)	(1,0)	
[...]
L1D 454>	(1,0)	(1,0)	(1,0)	(1,0)	(1,0)	(1,0)	(1,0)	(1,0)	(1,0)	(1,0)	(1,0)	(1,0)	(1,0)	(1,0)	(1,0)	(1,0)	
L1D 455>	(1,0)	(1,0)	(1,0)	(1,0)	(1,0)	(1,0)	(1,0)	(1,0)	(1,0)	(1,0)	(1,0)	(1,0)	(1,0)	(1,0)	(1,0)	(1,0)	
L1D 456>	(1,0)	(1,0)	(1,0)	(1,0)	(1,0)	(1,0)	(1,0)	(1,0)	(1,0)	(1,0)	(1,0)	(1,0)	(1,0)	(1,0)	(1,0)	(1,0)	
L1D 457>	(1,0)	(1,0)	(1,0)	(1,0)	(1,0)	(1,0)	(1,0)	(1,0)	(1,0)	(1,0)	(1,0)	(1,0)	(1,0)	(1,0)	(1,0)	(1,0)	
L1D 458>	(1,0)	(1,0)	(1,0)	(1,0)	(1,0)	(1,0)	(1,0)	(1,0)	(1,0)	(1,0)	(1,0)	(1,0)	(1,0)	(1,0)	(1,0)	(1,0)	
L1D 459>	(1,0)	(1,0)	(1,0)	(1,0)	(1,0)	(1,0)	(1,0)	(1,0)	(1,0)	(1,0)	(1,0)	(1,0)	(1,0)	(1,0)	(1,0)	(1,0)	
L1D 460>	(1,0)	(1,0)	(1,0)	(1,0)	(1,0)	(1,0)	(1,0)	(1,0)	(1,0)	(1,0)	(1,0)	(1,0)	(1,0)	(1,0)	(1,0)	(1,0)	
L1D 461>	(1,0)	(1,0)	(1,0)	(1,0)	(1,0)	(1,0)	(1,0)	(1,0)	(1,0)	(1,0)	(1,0)	(1,0)	(1,0)	(1,0)	(1,0)	(1,0)	
L1D 462>	(1,0)	(1,0)	(1,0)	(1,0)	(1,0)	(1,0)	(1,0)	(1,0)	(1,0)	(1,0)	(1,0)	(1,0)	(1,0)	(1,0)	(1,0)	(1,0)	
L1D 463>	(1,0)	(1,0)	(1,0)	(1,0)	(1,0)	(1,0)	(1,0)	(1,0)	(1,0)	(1,0)	(1,0)	(1,0)	(1,0)	(1,0)	(1,0)	(1,0)	
L1D 464>	(1,0)	(1,0)	(1,0)	(1,0)	(1,0)	(1,0)	(1,0)	(1,0)	(1,0)	(1,0)	(1,0)	(1,0)	(1,0)	(1,0)	(1,0)	(1,0)	
L1D 465>	(1,0)	(1,0)	(1,0)	(1,0)	(1,0)	(1,0)	(1,0)	(1,0)	(1,0)	(1,0)	(1,0)	(1,0)	(1,0)	(1,0)	(1,0)	(1,0)	
L1D 466>	(1,0)	(1,0)	(1,0)	(1,0)	(1,0)	(1,0)	(1,0)	(1,0)	(1,0)	(1,0)	(1,0)	(1,0)	(1,0)	(1,0)	(1,0)	(1,0)	
L1D 467>	(1,0)	(1,0)	(1,0)	(1,0)	(1,0)	(1,0)	(1,0)	(1,0)	(1,0)	(1,0)	(1,0)	(1,0)	(1,0)	(1,0)	(1,0)	(1,0)	
L1D 468>	(1,0)	(1,0)	(1,0)	(1,0)	(1,0)	(1,0)	(1,0)	(1,0)	(1,0)	(1,0)	(1,0)	(1,0)	(1,0)	(1,0)	(1,0)	(1,0)	
L1D 469>	(1,0)	(1,0)	(1,0)	(1,0)	(1,0)	(1,0)	(1,0)	(1,0)	(1,0)	(1,0)	(1,0)	(1,0)	(1,0)	(1,0)	(1,0)	(1,0)	
L1D 470>	(1,0)	(1,0)	(1,0)	(1,0)	(1,0)	(1,0)	(1,0)	(1,0)	(1,0)	(1,0)	(1,0)	(1,0)	(1,0)	(1,0)	(1,0)	(1,0)	
L1D 471>	(1,0)	(1,0)	(1,0)	(1,0)	(1,0)	(1,0)	(1,0)	(1,0)	(1,0)	(1,0)	(1,0)	(1,0)	(1,0)	(1,0)	(1,0)	(1,0)	
L1D 472>	(1,0)	(1,0)	(1,0)	(1,0)	(1,0)	(1,0)	(1,0)	(1,0)	(1,0)	(1,0)	(1,0)	(1,0)	(1,0)	(1,0)	(1,0)	(1,0)	
L1D 473>	(1,0)	(1,0)	(1,0)	(1,0)	(1,0)	(1,0)	(1,0)	(1,0)	(1,0)	(1,0)	(1,0)	(1,0)	(1,0)	(1,0)	(1,0)	(1,0)	
L1D 474>	(1,0)	(1,0)	(1,0)	(1,0)	(1,0)	(1,0)	(1,0)	(1,0)	(1,0)	(1,0)	(1,0)	(1,0)	(1,0)	(1,0)	(1,0)	(1,0)	
L1D 475>	(1,0)	(1,0)	(1,0)	(1,0)	(1,0)	(1,0)	(1,0)	(1,0)	(1,0)	(1,0)	(1,0)	(1,0)	(1,0)	(1,0)	(1,0)	(1,0)	
L1D 476>	(1,0)	(1,0)	(1,0)	(1,0)	(1,0)	(1,0)	(1,0)	(1,0)	(1,0)	(1,0)	(1,0)	(1,0)	(1,0)	(1,0)	(1,0)	(1,0)	
L1D 477>	(1,0)	(1,0)	(1,0)	(1,0)	(1,0)	(1,0)	(1,0)	(1,0)	(1,0)	(1,0)	(1,0)	(1,0)	(1,0)	(1,0)	(1,0)	(1,0)	
L1D 478>	(1,0)	(1,0)	(1,0)	(1,0)	(1,0)	(1,0)	(1,0)	(1,0)	(1,0)	(1,0)	(1,0)	(1,0)	(1,0)	(1,0)	(1,0)	(1,0)	
L1D 479>	(1,0)	(1,0)	(1,0)	(1,0)	(1,0)	(1,0)	(1,0)	(1,0)	(1,0)	(1,0)	(1,0)	(1,0)	(1,0)	(1,0)	(1,0)	(1,0)	
L1D 480>	(1,0)	(1,0)	(1,0)	(1,0)	(1,0)	(1,0)	(1,0)	(1,0)	(1,0)	(1,0)	(1,0)	(1,0)	(1,0)	(1,0)	(1,0)	(1,0)	
L1D 481>	(1,0)	(1,0)	(1,0)	(1,0)	(1,0)	(1,0)	(1,0)	(1,0)	(1,0)	(1,0)	(1,0)	(1,0)	(1,0)	(1,0)	(1,0)	(1,0)	
L1D 482>	(1,0)	(1,0)	(1,0)	(1,0)	(1,0)	(1,0)	(1,0)	(1,0)	(1,0)	(1,0)	(1,0)	(1,0)	(1,0)	(1,0)	(1,0)	(1,0)	
L1D 483>	(1,0)	(1,0)	(1,0)	(1,0)	(1,0)	(1,0)	(1,0)	(1,0)	(1,0)	(1,0)	(1,0)	(1,0)	(1,0)	(1,0)	(1,0)	(1,0)	
L1D 484>	(1,0)	(1,0)	(1,0)	(1,0)	(1,0)	(1,0)	(1,0)	(1,0)	(1,0)	(1,0)	(1,0)	(1,0)	(1,0)	(1,0)	(1,0)	(1,0)	
L1D 485>	(1,0)	(1,0)	(1,0)	(1,0)	(1,0)	(1,0)	(1,0)	(1,0)	(1,0)	(1,0)	(1,0)	(1,0)	(1,0)	(1,0)	(1,0)	(1,0)	
L1D 486>	(1,0)	(1,0)	(1,0)	(1,0)	(1,0)	(1,0)	(1,0)	(1,0)	(1,0)	(1,0)	(1,0)	(1,0)	(1,0)	(1,0)	(1,0)	(1,0)	
L1D 487>	(1,0)	(1,0)	(1,0)	(1,0)	(1,0)	(1,0)	(1,0)	(1,0)	(1,0)	(1,0)	(1,0)	(1,0)	(1,0)	(1,0)	(1,0)	(1,0)	
L1D 488>	(1,0)	(1,0)	(1,0)	(1,0)	(1,0)	(1,0)	(1,0)	(1,0)	(1,0)	(1,0)	(1,0)	(1,0)	(1,0)	(1,0)	(1,0)	(1,0)	
L1D 489>	(1,0)	(1,0)	(1,0)	(1,0)	(1,0)	(1,0)	(1,0)	(1,0)	(1,0)	(1,0)	(1,0)	(1,0)	(1,0)	(1,0)	(1,0)	(1,0)	
L1D 490>	(1,0)	(1,0)	(1,0)	(1,0)	(1,0)	(1,0)	(1,0)	(1,0)	(1,0)	(1,0)	(1,0)	(1,0)	(1,0)	(1,0)	(1,0)	(1,0)	
L1D 491>	(1,0)	(1,0)	(1,0)	(1,0)	(1,0)	(1,0)	(1,0)	(1,0)	(1,0)	(1,0)	(1,0)	(1,0)	(1,0)	(1,0)	(1,0)	(1,0)	
L1D 492>	(1,0)	(1,0)	(1,0)	(1,0)	(1,0)	(1,0)	(1,0)	(1,0)	(1,0)	(1,0)	(1,0)	(1,0)	(1,0)	(1,0)	(1,0)	(1,0)	
L1D 493>	(1,0)	(1,0)	(1,0)	(1,0)	(1,0)	(1,0)	(1,0)	(1,0)	(1,0)	(1,0)	(1,0)	(1,0)	(1,0)	(1,0)	(1,0)	(1,0)	
L1D 494>	(1,0)	(1,0)	(1,0)	(1,0)	(1,0)	(1,0)	(1,0)	(1,0)	(1,0)	(1,0)	(1,0)	(1,0)	(1,0)	(1,0)	(1,0)	(1,0)	
L1D 495>	(1,0)	(1,0)	(1,0)	(1,0)	(1,0)	(1,0)	(1,0)	(1,0)	(1,0)	(1,0)	(1,0)	(1,0)	(1,0)	(1,0)	(1,0)	(1,0)	
L1D 496>	(1,0)	(1,0)	(1,0)	(1,0)	(1,0)	(1,0)	(1,0)	(1,0)	(1,0)	(1,0)	(1,0)	(1,0)	(1,0)	(1,0)	(1,0)	(1,0)	
L1D 497>	(1,0)	(1,0)	(1,0)	(1,0)	(1,0)	(1,0)	(1,0)	(1,0)	(1,0)	(1,0)	(1,0)	(1,0)	(1,0)	(1,0)	(1,0)	(1,0)	
L1D 498>	(1,0)	(1,0)	(1,0)	(1,0)	(1,0)	(1,0)	(1,0)	(1,0)	(1,0)	(1,0)	(1,0)	(1,0)	(1,0)	(1,0)	(1,0)	(1,0)	
L1D 499>	(1,0)	(1,0)	(1,0)	(1,0)	(1,0)	(1,0)	(1,0)	(1,0)	(1,0)	(1,0)	(1,0)	(1,0)	(1,0)	(1,0)	(1,0)	(1,0)	
L1D 500>	(1,0)	(1,0)	(1,0)	(1,0)	(1,0)	(1,0)	(1,0)	(1,0)	(1,0)	(1,0)	(1,0)	(1,0)	(1,0)	(1,0)	(1,0)	(1,0)	
L1D 501>	(1,0)	(1,0)	(1,0)	(1,0)	(1,0)	(1,0)	(1,0)	(1,0)	(1,0)	(1,0)	(1,0)	(1,0)	(1,0)	(1,0)	(1,0)	(1,0)	
L1D 502>	(1,0)	(1,0)	(1,0)	(1,0)	(1,0)	(1,0)	(1,0)	(1,0)	(1,0)	(1,0)	(1,0)	(1,0)	(1,0)	(1,0)	(1,0)	(1,0)	
L1D 503>	(1,0)	(1,0)	(1,0)	(1,0)	(1,0)	(1,0)	(1,0)	(1,0)	(1,0)	(1,0)	(1,0)	(1,0)	(1,0)	(1,0)	(1,0)	(1,0)	
L1D 504>	(1,0)	(1,0)	(1,0)	(1,0)	(1,0)	(1,0)	(1,0)	(1,0)	(1,0)	(1,0)	(1,0)	(1,0)	(1,0)	(1,0)	(1,0)	(1,0)	
L1D 505>	(1,0)	(1,0)	(1,0)	(1,0)	(1,0)	(1,0)	(1,0)	(1,0)	(1,0)	(1,0)	(1,0)	(1,0)	(1,0)	(1,0)	(1,0)	(1,0)	
L1D 506>	(1,0)	(1,0)	(1,0)	(1,0)	(1,0)	(1,0)	(1,0)	(1,0)	(1,0)	(1,0)	(1,0)	(1,0)	(1,0)	(1,0)	(1,0)	(1,0)	
L1D 507>	(1,0)	(1,0)	(1,0)	(1,0)	(1,0)	(1,0)	(1,0)	(1,0)	(1,0)	(1,0)	(1,0)	(1,0)	(1,0)	(1,0)	(1,0)	(1,0)	
L1D 508>	(1,0)	(1,0)	(1,0)	(1,0)	(1,0)	(1,0)	(1,0)	(1,0)	(1,0)	(1,0)	(1,0)	(1,0)	(1,0)	(1,0)	(1,0)	(1,0)	
L1D 509>	(1,0)	(1,0)	(1,0)	(1,0)	(1,0)	(1,0)	(1,0)	(1,0)	(1,0)	(1,0)	(1,0)	(1,0)	(1,0)	(1,0)	(1,0)	(1,0)	
L1D 510>	(1,0)	(1,0)	(1,0)	(1,0)	(1,0)	(1,0)	(1,0)	(1,0)	(1,0)	(1,0)	(1,0)	(1,0)	(1,0)	(1,0)	(1,0)	(1,0)	
L1D 511>	(1,0)	(1,0)	(1,0)	(1,0)	(1,0)	(1,0)	(1,0)	(1,0)	(1,0)	(1,0)	(1,0)	(1,0)	(1,0)	(1,0)	(1,0)	(1,0)	

L2C -64>	(1,14)	(-18,1)	(5,2)	(11,2)	(-20,1)	(4,2)	(8,1)	(6,2)	(2,3)	(-16,1)	(10,4)	(-1,1)	(-11,3)	(-5,1)	(7,1)	(3,1)	
L2C -63>	(1,0)	(1,0)	(1,0)	(1,0)	(1,0)	(1,0)	(1,0)	(1,0)	(1,0)	(1,0)	(1,0)	(1,0)	(1,0)	(1,0)	(1,0)	(1,0)	
L2C -62>	(1,0)	(1,0)	(1,0)	(1,0)	(1,0)	(1,0)	(1,0)	(1,0)	(1,0)	(1,0)	(1,0)	(1,0)	(1,0)	(1,0)	(1,0)	(1,0)	
L2C -61>	(1,1)	(1,0)	(1,0)	(1,0)	(1,0)	(1,0)	(1,0)	(1,0)	(1,0)	(1,0)	(1,0)	(1,0)	(1,0)	(1,0)	(1,0)	(1,0)	
L2C -60>	(1,0)	(1,0)	(1,0)	(1,0)	(1,0)	(1,0)	(1,0)	(1,0)	(1,0)	(1,0)	(1,0)	(1,0)	(1,0)	(1,0)	(1,0)	(1,0)	
L2C -59>	(1,0)	(1,0)	(1,0)	(1,0)	(1,0)	(1,0)	(1,0)	(1,0)	(1,0)	(1,0)	(1,0)	(1,0)	(1,0)	(1,0)	(1,0)	(1,0)	
L2C -58>	(1,0)	(1,0)	(1,0)	(1,0)	(1,0)	(1,0)	(1,0)	(1,0)	(1,0)	(1,0)	(1,0)	(1,0)	(1,0)	(1,0)	(1,0)	(1,0)	
L2C -57>	(1,0)	(1,0)	(1,0)	(1,0)	(1,0)	(1,0)	(1,0)	(1,0)	(1,0)	(1,0)	(1,0)	(1,0)	(1,0)	(1,0)	(1,0)	(1,0)	
L2C -56>	(1,0)	(1,0)	(1,0)	(1,0)	(1,0)	(1,0)	(1,0)	(1,0)	(1,0)	(1,0)	(1,0)	(1,0)	(1,0)	(1,0)	(1,0)	(1,0)	
L2C -55>	(1,1)	(1,0)	(1,0)	(1,0)	(1,0)	(1,0)	(1,0)	(1,0)	(1,0)	(1,0)	(1,0)	(1,0)	(1,0)	(1,0)	(1,0)	(1,0)	
L2C -54>	(1,0)	(1,0)	(1,0)	(1,0)	(1,0)	(1,0)	(1,0)	(1,0)	(1,0)	(1,0)	(1,0)	(1,0)	(1,0)	(1,0)	(1,0)	(1,0)	
L2C -53>	(1,0)	(1,0)	(1,0)	(1,0)	(1,0)	(1,0)	(1,0)	(1,0)	(1,0)	(1,0)	(1,0)	(1,0)	(1,0)	(1,0)	(1,0)	(1,0)	
L2C -52>	(1,0)	(1,0)	(1,0)	(1,0)	(1,0)	(1,0)	(1,0)	(1,0)	(1,0)	(1,0)	(1,0)	(1,0)	(1,0)	(1,0)	(1,0)	(1,0)	
L2C -51>	(1,0)	(1,0)	(1,0)	(1,0)	(1,0)	(1,0)	(1,0)	(1,0)	(1,0)	(1,0)	(1,0)	(1,0)	(1,0)	(1,0)	(1,0)	(1,0)	
L2C -50>	(1,0)	(1,0)	(1,0)	(1,0)	(1,0)	(1,0)	(1,0)	(1,0)	(1,0)	(1,0)	(1,0)	(1,0)	(1,0)	(1,0)	(1,0)	(1,0)	
L2C -49>	(1,0)	(1,0)	(1,0)	(1,0)	(1,0)	(1,0)	(1,0)	(1,0)	(1,0)	(1,0)	(1,0)	(1,0)	(1,0)	(1,0)	(1,0)	(1,0)	
L2C -48>	(1,0)	(1,0)	(1,0)	(1,0)	(1,0)	(1,0)	(1,0)	(1,0)	(1,0)	(1,0)	(1,0)	(1,0)	(1,0)	(1,0)	(1,0)	(1,0)	
L2C -47>	(1,0)	(1,0)	(1,0)	(1,0)	(1,0)	(1,0)	(1,0)	(1,0)	(1,0)	(1,0)	(1,0)	(1,0)	(1,0)	(1,0)	(1,0)	(1,0)	
L2C -46>	(1,0)	(1,0)	(1,0)	(1,0)	(1,0)	(1,0)	(1,0)	(1,0)	(1,0)	(1,0)	(1,0)	(1,0)	(1,0)	(1,0)	(1,0)	(1,0)	
L2C -45>	(1,0)	(1,0)	(1,0)	(1,0)	(1,0)	(1,0)	(1,0)	(1,0)	(1,0)	(1,0)	(1,0)	(1,0)	(1,0)	(1,0)	(1,0)	(1,0)	
L2C -44>	(1,0)	(1,0)	(1,0)	(1,0)	(1,0)	(1,0)	(1,0)	(1,0)	(1,0)	(1,0)	(1,0)	(1,0)	(1,0)	(1,0)	(1,0)	(1,0)	
L2C -43>	(1,0)	(1,0)	(1,0)	(1,0)	(1,0)	(1,0)	(1,0)	(1,0)	(1,0)	(1,0)	(1,0)	(1,0)	(1,0)	(1,0)	(1,0)	(1,0)	
L2C -42>	(1,0)	(1,0)	(1,0)	(1,0)	(1,0)	(1,0)	(1,0)	(1,0)	(1,0)	(1,0)	(1,0)	(1,0)	(1,0)	(1,0)	(1,0)	(1,0)	
L2C -41>	(1,0)	(1,0)	(1,0)	(1,0)	(1,0)	(1,0)	(1,0)	(1,0)	(1,0)	(1,0)	(1,0)	(1,0)	(1,0)	(1,0)	(1,0)	(1,0)	
L2C -40>	(1,0)	(1,0)	(1,0)	(1,0)	(1,0)	(1,0)	(1,0)	(1,0)	(1,0)	(1,0)	(1,0)	(1,0)	(1,0)	(1,0)	(1,0)	(1,0)	
L2C -39>	(1,0)	(1,0)	(1,0)	(1,0)	(1,0)	(1,0)	(1,0)	(1,0)	(1,0)	(1,0)	(1,0)	(1,0)	(1,0)	(1,0)	(1,0)	(1,0)	
L2C -38>	(1,0)	(1,0)	(1,0)	(1,0)	(1,0)	(1,0)	(1,0)	(1,0)	(1,0)	(1,0)	(1,0)	(1,0)	(1,0)	(1,0)	(1,0)	(1,0)	
L2C -37>	(1,0)	(1,0)	(1,0)	(1,0)	(1,0)	(1,0)	(1,0)	(1,0)	(1,0)	(1,0)	(1,0)	(1,0)	(1,0)	(1,0)	(1,0)	(1,0)	
L2C -36>	(1,0)	(1,0)	(1,0)	(1,0)	(1,0)	(1,0)	(1,0)	(1,0)	(1,0)	(1,0)	(1,0)	(1,0)	(1,0)	(1,0)	(1,0)	(1,0)	
L2C -35>	(1,0)	(1,0)	(1,0)	(1,0)	(1,0)	(1,0)	(1,0)	(1,0)	(1,0)	(1,0)	(1,0)	(1,0)	(1,0)	(1,0)	(1,0)	(1,0)	
L2C -34>	(1,0)	(1,0)	(1,0)	(1,0)	(1,0)	(1,0)	(1,0)	(1,0)	(1,0)	(1,0)	(1,0)	(1,0)	(1,0)	(1,0)	(1,0)	(1,0)	
L2C -33>	(-1,1)	(1,0)	(1,0)	(1,0)	(1,0)	(1,0)	(1,0)	(1,0)	(1,0)	(1,0)	(1,0)	(1,0)	(1,0)	(1,0)	(1,0)	(1,0)	
L2C -32>	(11,1)	(1,0)	(1,0)	(1,0)	(1,0)	(1,0)	(1,0)	(1,0)	(1,0)	(1,0)	(1,0)	(1,0)	(1,0)	(1,0)	(1,0)	(1,0)	
L2C -31>	(1,1)	(1,0)	(1,0)	(1,0)	(1,0)	(1,0)	(1,0)	(1,0)	(1,0)	(1,0)	(1,0)	(1,0)	(1,0)	(1,0)	(1,0)	(1,0)	
L2C -30>	(1,0)	(1,0)	(1,0)	(1,0)	(1,0)	(1,0)	(1,0)	(1,0)	(1,0)	(1,0)	(1,0)	(1,0)	(1,0)	(1,0)	(1,0)	(1,0)	
L2C -29>	(1,0)	(1,0)	(1,0)	(1,0)	(1,0)	(1,0)	(1,0)	(1,0)	(1,0)	(1,0)	(1,0)	(1,0)	(1,0)	(1,0)	(1,0)	(1,0)	
L2C -28>	(1,0)	(1,0)	(1,0)	(1,0)	(1,0)	(1,0)	(1,0)	(1,0)	(1,0)	(1,0)	(1,0)	(1,0)	(1,0)	(1,0)	(1,0)	(1,0)	
L2C -27>	(1,2)	(1,0)	(1,0)	(1,0)	(1,0)	(1,0)	(1,0)	(1,0)	(1,0)	(1,0)	(1,0)	(1,0)	(1,0)	(1,0)	(1,0)	(1,0)	
L2C -26>	(1,1)	(1,0)	(1,0)	(1,0)	(1,0)	(1,0)	(1,0)	(1,0)	(1,0)	(1,0)	(1,0)	(1,0)	(1,0)	(1,0)	(1,0)	(1,0)	
L2C -25>	(1,1)	(1,0)	(1,0)	(1,0)	(1,0)	(1,0)	(1,0)	(1,0)	(1,0)	(1,0)	(1,0)	(1,0)	(1,0)	(1,0)	(1,0)	(1,0)	
L2C -24>	(1,1)	(-1,1)	(1,0)	(1,0)	(1,0)	(1,0)	(1,0)	(1,0)	(1,0)	(1,0)	(1,0)	(1,0)	(1,0)	(1,0)	(1,0)	(1,0)	
L2C -23>	(1,1)	(1,0)	(1,0)	(1,0)	(1,0)	(1,0)	(1,0)	(1,0)	(1,0)	(1,0)	(1,0)	(1,0)	(1,0)	(1,0)	(1,0)	(1,0)	
L2C -22>	(1,1)	(1,0)	(1,0)	(1,0)	(1,0)	(1,0)	(1,0)	(1,0)	(1,0)	(1,0)	(1,0)	(1,0)	(1,0)	(1,0)	(1,0)	(1,0)	
L2C -21>	(1,1)	(1,0)	(1,0)	(1,0)	(1,0)	(1,0)	(1,0)	(1,0)	(1,0)	(1,0)	(1,0)	(1,0)	(1,0)	(1,0)	(1,0)	(1,0)	
L2C -20>	(1,0)	(1,0)	(1,0)	(1,0)	(1,0)	(1,0)	(1,0)	(1,0)	(1,0)	(1,0)	(1,0)	(1,0)	(1,0)	(1,0)	(1,0)	(1,0)	
L2C -19>	(25,1)	(1,0)	(1,0)	(1,0)	(1,0)	(1,0)	(1,0)	(1,0)	(1,0)	(1,0)	(1,0)	(1,0)	(1,0)	(1,0)	(1,0)	(1,0)	
L2C -18>	(1,1)	(1,0)	(1,0)	(1,0)	(1,0)	(1,0)	(1,0)	(1,0)	(1,0)	(1,0)	(1,0)	(1,0)	(1,0)	(1,0)	(1,0)	(1,0)	
L2C -17>	(1,0)	(1,0)	(1,0)	(1,0)	(1,0)	(1,0)	(1,0)	(1,0)	(1,0)	(1,0)	(1,0)	(1,0)	(1,0)	(1,0)	(1,0)	(1,0)	
L2C -16>	(1,0)	(1,0)	(1,0)	(1,0)	(1,0)	(1,0)	(1,0)	(1,0)	(1,0)	(1,0)	(1,0)	(1,0)	(1,0)	(1,0)	(1,0)	(1,0)	
L2C -15>	(13,1)	(1,0)	(1,0)	(1,0)	(1,0)	(1,0)	(1,0)	(1,0)	(1,0)	(1,0)	(1,0)	(1,0)	(1,0)	(1,0)	(1,0)	(1,0)	
L2C -14>	(-5,1)	(-14,1)	(1,1)	(1,0)	(1,0)	(1,0)	(1,0)	(1,0)	(1,0)	(1,0)	(1,0)	(1,0)	(1,0)	(1,0)	(1,0)	(1,0)	
L2C -13>	(14,1)	(-1,1)	(1,0)	(1,0)	(1,0)	(1,0)	(1,0)	(1,0)	(1,0)	(1,0)	(1,0)	(1,0)	(1,0)	(1,0)	(1,0)	(1,0)	
L2C -12>	(1,0)	(1,0)	(1,0)	(1,0)	(1,0)	(1,0)	(1,0)	(1,0)	(1,0)	(1,0)	(1,0)	(1,0)	(1,0)	(1,0)	(1,0)	(1,0)	
L2C -11>	(10,1)	(-9,1)	(-1,1)	(1,0)	(1,0)	(1,0)	(1,0)	(1,0)	(1,0)	(1,0)	(1,0)	(1,0)	(1,0)	(1,0)	(1,0)	(1,0)	
L2C -10>	(20,1)	(1,1)	(1,0)	(1,0)	(1,0)	(1,0)	(1,0)	(1,0)	(1,0)	(1,0)	(1,0)	(1,0)	(1,0)	(1,0)	(1,0)	(1,0)	
L2C -9>	(-1,1)	(1,0)	(1,0)	(1,0)	(1,0)	(1,0)	(1,0)	(1,0)	(1,0)	(1,0)	(1,0)	(1,0)	(1,0)	(1,0)	(1,0)	(1,0)	
L2C -8>	(32,1)	(1,0)	(1,0)	(1,0)	(1,0)	(1,0)	(1,0)	(1,0)	(1,0)	(1,0)	(1,0)	(1,0)	(1,0)	(1,0)	(1,0)	(1,0)	
L2C -7>	(-1,1)	(-32,1)	(1,1)	(1,0)	(1,0)	(1,0)	(1,0)	(1,0)	(1,0)	(1,0)	(1,0)	(1,0)	(1,0)	(1,0)	(1,0)	(1,0)	
L2C -6>	(1,2)	(1,0)	(1,0)	(1,0)	(1,0)	(1,0)	(1,0)	(1,0)	(1,0)	(1,0)	(1,0)	(1,0)	(1,0)	(1,0)	(1,0)	(1,0)	
L2C -5>	(1,1)	(6,1)	(1,0)	(1,0)	(1,0)	(1,0)	(1,0)	(1,0)	(1,0)	(1,0)	(1,0)	(1,0)	(1,0)	(1,0)	(1,0)	(1,0)	
L2C -4>	(-1,1)	(1,0)	(1,0)	(1,0)	(1,0)	(1,0)	(1,0)	(1,0)	(1,0)	(1,0)	(1,0)	(1,0)	(1,0)	(1,0)	(1,0)	(1,0)	
L2C -3>	(4,1)	(1,1)	(2,1)	(34,1)	(1,0)	(1,0)	(1,0)	(1,0)	(1,0)	(1,0)	(1,0)	(1,0)	(1,0)	(1,0)	(1,0)	(1,0)	
L2C -2>	(3,2)	(6,1)	(-3,1)	(-7,1)	(-23,1)	(1,0)	(1,0)	(1,0)	(1,0)	(1,0)	(1,0)	(1,0)	(1,0)	(1,0)	(1,0)	(1,0)	
L2C -1>	(11,1)	(-61,1)	(39,1)	(-1,5)	(3,1)	(6,1)	(17,1)	(14,1)	(4,1)	(2,2)	(15,1)	(1,0)	(1,0)	(1,0)	(1,0)	(1,0)	
L2C 0>	(1,0)	(1,0)	(1,0)	(1,0)	(1,0)	(1,0)	(1,0)	(1,0)	(1,0)	(1,0)	(1,0)	(1,0)	(1,0)	(1,0)	(1,0)	(1,0)	
L2C 1>	(5,3)	(1,127)	(26,1)	(55,1)	(3,4)	(-27,2)	(22,1)	(-33,1)	(15,1)	(-3,1)	(2,4)	(20,1)	(13,1)	(-8,1)	(-31,1)	(-25,1)	
L2C 2>	(1,8)	(-10,1)	(4,1)	(2,1)	(-1,1)	(-13,1)	(1,0)	(1,0)	(1,0)	(1,0)	(1,0)	(1,0)	(1,0)	(1,0)	(1,0)	(1,0)	
L2C 3>	(1,4)	(-1,2)	(-4,1)	(1,0)	(1,0)	(1,0)	(1,0)	(1,0)	(1,0)	(1,0)	(1,0)	(1,0)	(1,0)	(1,0)	(1,0)	(1,0)	
L2C 4>	(1,3)	(-3,3)	(-6,2)	(5,1)	(1,0)	(1,0)	(1,0)	(1,0)	(1,0)	(1,0)	(1,0)	(1,0)	(1,0)	(1,0)	(1,0)	(1,0)	
L2C 5>	(-15,1)	(7,1)	(1,3)	(6,1)	(1,0)	(1,0)	(1,0)	(1,0)	(1,0)	(1,0)	(1,0)	(1,0)	(1,0)	(1,0)	(1,0)	(1,0)	
L2C 6>	(-2,2)	(-7,1)	(-1,1)	(-14,1)	(1,1)	(1,0)	(1,0)	(1,0)	(1,0)	(1,0)	(1,0)	(1,0)	(1,0)	(1,0)	(1,0)	(1,0)	
L2C 7>	(-1,1)	(-2,1)	(1,0)	(1,0)	(1,0)	(1,0)	(1,0)	(1,0)	(1,0)	(1,0)	(1,0)	(1,0)	(1,0)	(1,0)	(1,0)	(1,0)	
L2C 8>	(2,1)	(1,0)	(1,0)	(1,0)	(1,0)	(1,0)	(1,0)	(1,0)	(1,0)	(1,0)	(1,0)	(1,0)	(1,0)	(1,0)	(1,0)	(1,0)	
L2C 9>	(1,1)	(1,0)	(1,0)	(1,0)	(1,0)	(1,0)	(1,0)	(1,0)	(1,0)	(1,0)	(1,0)	(1,0)	(1,0)	(1,0)	(1,0)	(1,0)	
L2C 10>	(-4,1)	(-11,1)	(4,1)	(1,0)	(1,0)	(1,0)	(1,0)	(1,0)	(1,0)	(1,0)	(1,0)	(1,0)	(1,0)	(1,0)	(1,0)	(1,0)	
L2C 11>	(-10,1)	(-1,1)	(1,1)	(1,0)	(1,0)	(1,0)	(1,0)	(1,0)	(1,0)	(1,0)	(1,0)	(1,0)	(1,0)	(1,0)	(1,0)	(1,0)	
L2C 12>	(1,1)	(1,0)	(1,0)	(1,0)	(1,0)	(1,0)	(1,0)	(1,0)	(1,0)	(1,0)	(1,0)	(1,0)	(1,0)	(1,0)	(1,0)	(1,0)	
L2C 13>	(-14,1)	(2,1)	(1,0)	(1,0)	(1,0)	(1,0)	(1,0)	(1,0)	(1,0)	(1,0)	(1,0)	(1,0)	(1,0)	(1,0)	(1,0)	(1,0)	
L2C 14>	(1,1)	(4,1)	(1,0)	(1,0)	(1,0)	(1,0)	(1,0)	(1,0)	(1,0)	(1,0)	(1,0)	(1,0)	(1,0)	(1,0)	(1,0)	(1,0)	
L2C 15>	(1,2)	(1,0)	(1,0)	(1,0)	(1,0)	(1,0)	(1,0)	(1,0)	(1,0)	(1,0)	(1,0)	(1,0)	(1,0)	(1,0)	(1,0)	(1,0)	
L2C 16>	(1,0)	(1,0)	(1,0)	(1,0)	(1,0)	(1,0)	(1,0)	(1,0)	(1,0)	(1,0)	(1,0)	(1,0)	(1,0)	(1,0)	(1,0)	(1,0)	
L2C 17>	(-2,1)	(1,0)	(1,0)	(1,0)	(1,0)	(1,0)	(1,0)	(1,0)	(1,0)	(1,0)	(1,0)	(1,0)	(1,0)	(1,0)	(1,0)	(1,0)	
L2C 18>	(1,0)	(1,0)	(1,0)	(1,0)	(1,0)	(1,0)	(1,0)	(1,0)	(1,0)	(1,0)	(1,0)	(1,0)	(1,0)	(1,0)	(1,0)	(1,0)	
L2C 19>	(1,2)	(1,0)	(1,0)	(1,0)	(1,0)	(1,0)	(1,0)	(1,0)	(1,0)	(1,0)	(1,0)	(1,0)	(1,0)	(1,0)	(1,0)	(1,0)	
L2C 20>	(-19,1)	(-1,1)	(1,0)	(1,0)	(1,0)	(1,0)	(1,0)	(1,0)	(1,0)	(1,0)	(1,0)	(1,0)	(1,0)	(1,0)	(1,0)	(1,0)	
L2C 21>	(1,0)	(1,0)	(1,0)	(1,0)	(1,0)	(1,0)	(1,0)	(1,0)	(1,0)	(1,0)	(1,0)	(1,0)	(1,0)	(1,0)	(1,0)	(1,0)	
L2C 22>	(28,1)	(1,0)	(1,0)	(1,0)	(1,0)	(1,0)	(1,0)	(1,0)	(1,0)	(1,0)	(1,0)	(1,0)	(1,0)	(1,0)	(1,0)	(1,0)	
L2C 23>	(1,0)	(1,0)	(1,0)	(1,0)	(1,0)	(1,0)	(1,0)	(1,0)	(1,0)	(1,0)	(1,0)	(1,0)	(1,0)	(1,0)	(1,0)	(1,0)	
L2C 24>	(1,0)	(1,0)	(1,0)	(1,0)	(1,0)	(1,0)	(1,0)	(1,0)	(1,0)	(1,0)	(1,0)	(1,0)	(1,0)	(1,0)	(1,0)	(1,0)	
L2C 25>	(-24,1)	(1,0)	(1,0)	(1,0)	(1,0)	(1,0)	(1,0)	(1,0)	(1,0)	(1,0)	(1,0)	(1,0)	(1,0)	(1,0)	(1,0)	(1,0)	
L2C 26>	(1,0)	(1,0)	(1,0)	(1,0)	(1,0)	(1,0)	(1,0)	(1,0)	(1,0)	(1,0)	(1,0)	(1,0)	(1,0)	(1,0)	(1,0)	(1,0)	
L2C 27>	(1,0)	(1,0)	(1,0)	(1,0)	(1,0)	(1,0)	(1,0)	(1,0)	(1,0)	(1,0)	(1,0)	(1,0)	(1,0)	(1,0)	(1,0)	(1,0)	
L2C 28>	(1,1)	(1,0)	(1,0)	(1,0)	(1,0)	(1,0)	(1,0)	(1,0)	(1,0)	(1,0)	(1,0)	(1,0)	(1,0)	(1,0)	(1,0)	(1,0)	
L2C 29>	(1,0)	(1,0)	(1,0)	(1,0)	(1,0)	(1,0)	(1,0)	(1,0)	(1,0)	(1,0)	(1,0)	(1,0)	(1,0)	(1,0)	(1,0)	(1,0)	
L2C 30>	(1,0)	(1,0)	(1,0)	(1,0)	(1,0)	(1,0)	(1,0)	(1,0)	(1,0)	(1,0)	(1,0)	(1,0)	(1,0)	(1,0)	(1,0)	(1,0)	
L2C 31>	(1,1)	(1,0)	(1,0)	(1,0)	(1,0)	(1,0)	(1,0)	(1,0)	(1,0)	(1,0)	(1,0)	(1,0)	(1,0)	(1,0)	(1,0)	(1,0)	
L2C 32>	(-55,1)	(2,1)	(1,0)	(1,0)	(1,0)	(1,0)	(1,0)	(1,0)	(1,0)	(1,0)	(1,0)	(1,0)	(1,0)	(1,0)	(1,0)	(1,0)	
L2C 33>	(1,0)	(1,0)	(1,0)	(1,0)	(1,0)	(1,0)	(1,0)	(1,0)	(1,0)	(1,0)	(1,0)	(1,0)	(1,0)	(1,0)	(1,0)	(1,0)	
L2C 34>	(-32,1)	(1,0)	(1,0)	(1,0)	(1,0)	(1,0)	(1,0)	(1,0)	(1,0)	(1,0)	(1,0)	(1,0)	(1,0)	(1,0)	(1,0)	(1,0)	
L2C 35>	(1,0)	(1,0)	(1,0)	(1,0)	(1,0)	(1,0)	(1,0)	(1,0)	(1,0)	(1,0)	(1,0)	(1,0)	(1,0)	(1,0)	(1,0)	(1,0)	
L2C 36>	(1,0)	(1,0)	(1,0)	(1,0)	(1,0)	(1,0)	(1,0)	(1,0)	(1,0)	(1,0)	(1,0)	(1,0)	(1,0)	(1,0)	(1,0)	(1,0)	
L2C 37>	(1,0)	(1,0)	(1,0)	(1,0)	(1,0)	(1,0)	(1,0)	(1,0)	(1,0)	(1,0)	(1,0)	(1,0)	(1,0)	(1,0)	(1,0)	(1,0)	
L2C 38>	(1,0)	(1,0)	(1,0)	(1,0)	(1,0)	(1,0)	(1,0)	(1,0)	(1,0)	(1,0)	(1,0)	(1,0)	(1,0)	(1,0)	(1,0)	(1,0)	
L2C 39>	(-1,1)	(1,0)	(1,0)	(1,0)	(1,0)	(1,0)	(1,0)	(1,0)	(1,0)	(1,0)	(1,0)	(1,0)	(1,0)	(1,0)	(1,0)	(1,0)	
L2C 40>	(1,0)	(1,0)	(1,0)	(1,0)	(1,0)	(1,0)	(1,0)	(1,0)	(1,0)	(1,0)	(1,0)	(1,0)	(1,0)	(1,0)	(1,0)	(1,0)	
L2C 41>	(1,1)	(1,0)	(1,0)	(1,0)	(1,0)	(1,0)	(1,0)	(1,0)	(1,0)	(1,0)	(1,0)	(1,0)	(1,0)	(1,0)	(1,0)	(1,0)	
L2C 42>	(1,1)	(1,0)	(1,0)	(1,0)	(1,0)	(1,0)	(1,0)	(1,0)	(1,0)	(1,0)	(1,0)	(1,0)	(1,0)	(1,0)	(1,0)	(1,0)	
L2C 43>	(1,0)	(1,0)	(1,0)	(1,0)	(1,0)	(1,0)	(1,0)	(1,0)	(1,0)	(1,0)	(1,0)	(1,0)	(1,0)	(1,0)	(1,0)	(1,0)	
L2C 44>	(1,0)	(1,0)	(1,0)	(1,0)	(1,0)	(1,0)	(1,0)	(1,0)	(1,0)	(1,0)	(1,0)	(1,0)	(1,0)	(1,0)	(1,0)	(1,0)	
L2C 45>	(1,0)	(1,0)	(1,0)	(1,0)	(1,0)	(1,0)	(1,0)	(1,0)	(1,0)	(1,0)	(1,0)	(1,0)	(1,0)	(1,0)	(1,0)	(1,0)	
L2C 46>	(1,0)	(1,0)	(1,0)	(1,0)	(1,0)	(1,0)	(1,0)	(1,0)	(1,0)	(1,0)	(1,0)	(1,0)	(1,0)	(1,0)	(1,0)	(1,0)	
L2C 47>	(1,0)	(1,0)	(1,0)	(1,0)	(1,0)	(1,0)	(1,0)	(1,0)	(1,0)	(1,0)	(1,0)	(1,0)	(1,0)	(1,0)	(1,0)	(1,0)	
L2C 48>	(1,0)	(1,0)	(1,0)	(1,0)	(1,0)	(1,0)	(1,0)	(1,0)	(1,0)	(1,0)	(1,0)	(1,0)	(1,0)	(1,0)	(1,0)	(1,0)	
L2C 49>	(1,0)	(1,0)	(1,0)	(1,0)	(1,0)	(1,0)	(1,0)	(1,0)	(1,0)	(1,0)	(1,0)	(1,0)	(1,0)	(1,0)	(1,0)	(1,0)	
L2C 50>	(1,0)	(1,0)	(1,0)	(1,0)	(1,0)	(1,0)	(1,0)	(1,0)	(1,0)	(1,0)	(1,0)	(1,0)	(1,0)	(1,0)	(1,0)	(1,0)	
L2C 51>	(1,0)	(1,0)	(1,0)	(1,0)	(1,0)	(1,0)	(1,0)	(1,0)	(1,0)	(1,0)	(1,0)	(1,0)	(1,0)	(1,0)	(1,0)	(1,0)	
L2C 52>	(1,0)	(1,0)	(1,0)	(1,0)	(1,0)	(1,0)	(1,0)	(1,0)	(1,0)	(1,0)	(1,0)	(1,0)	(1,0)	(1,0)	(1,0)	(1,0)	
L2C 53>	(1,0)	(1,0)	(1,0)	(1,0)	(1,0)	(1,0)	(1,0)	(1,0)	(1,0)	(1,0)	(1,0)	(1,0)	(1,0)	(1,0)	(1,0)	(1,0)	
L2C 54>	(1,0)	(1,0)	(1,0)	(1,0)	(1,0)	(1,0)	(1,0)	(1,0)	(1,0)	(1,0)	(1,0)	(1,0)	(1,0)	(1,0)	(1,0)	(1,0)	
L2C 55>	(-1,1)	(1,0)	(1,0)	(1,0)	(1,0)	(1,0)	(1,0)	(1,0)	(1,0)	(1,0)	(1,0)	(1,0)	(1,0)	(1,0)	(1,0)	(1,0)	
L2C 56>	(1,0)	(1,0)	(1,0)	(1,0)	(1,0)	(1,0)	(1,0)	(1,0)	(1,0)	(1,0)	(1,0)	(1,0)	(1,0)	(1,0)	(1,0)	(1,0)	
L2C 57>	(1,0)	(1,0)	(1,0)	(1,0)	(1,0)	(1,0)	(1,0)	(1,0)	(1,0)	(1,0)	(1,0)	(1,0)	(1,0)	(1,0)	(1,0)	(1,0)	
L2C 58>	(1,0)	(1,0)	(1,0)	(1,0)	(1,0)	(1,0)	(1,0)	(1,0)	(1,0)	(1,0)	(1,0)	(1,0)	(1,0)	(1,0)	(1,0)	(1,0)	
L2C 59>	(1,0)	(1,0)	(1,0)	(1,0)	(1,0)	(1,0)	(1,0)	(1,0)	(1,0)	(1,0)	(1,0)	(1,0)	(1,0)	(1,0)	(1,0)	(1,0)	
L2C 60>	(1,0)	(1,0)	(1,0)	(1,0)	(1,0)	(1,0)	(1,0)	(1,0)	(1,0)	(1,0)	(1,0)	(1,0)	(1,0)	(1,0)	(1,0)	(1,0)	
L2C 61>	(1,0)	(1,0)	(1,0)	(1,0)	(1,0)	(1,0)	(1,0)	(1,0)	(1,0)	(1,0)	(1,0)	(1,0)	(1,0)	(1,0)	(1,0)	(1,0)	
L2C 62>	(1,0)	(1,0)	(1,0)	(1,0)	(1,0)	(1,0)	(1,0)	(1,0)	(1,0)	(1,0)	(1,0)	(1,0)	(1,0)	(1,0)	(1,0)	(1,0)	
L2C 63>	(1,0)	(1,0)	(1,0)	(1,0)	(1,0)	(1,0)	(1,0)	(1,0)	(1,0)	(1,0)	(1,0)	(1,0)	(1,0)	(1,0)	(1,0)	(1,0)	

DRAM Statistics
 CHANNEL 0
 RQ ROW_BUFFER_HIT:        100  ROW_BUFFER_MISS:         22
 DBUS_CONGESTED:         25
 WQ ROW_BUFFER_HIT:          0  ROW_BUFFER_MISS:          0  FULL:          0

 AVG_CONGESTED_CYCLE: 6
