
*** ChampSim Multicore Out-of-Order Simulator ***

Warmup Instructions: 1000000
Simulation Instructions: 10000000
Number of CPUs: 1
LLC sets: 2048
LLC ways: 16
Off-chip DRAM Size: 4096 MB Channels: 1 Width: 64-bit Data Rate: 3200 MT/s

CPU 0 runs /home/aniket/Desktop/sem/cs622/cs622-project/champsim/dpc3_traces/605.mcf_s-665B.champsimtrace.xz
Ultra pref. initializing...
Ultra pref. initialized
Ultra pref. initializing...
Ultra pref. initialized

Warmup complete CPU 0 instructions: 1000004 cycles: 995985 (Simulation time: 0 hr 0 min 2 sec) 

Heartbeat CPU 0 instructions: 10000000 cycles: 33866662 heartbeat IPC: 0.295276 cumulative IPC: 0.2738 (Simulation time: 0 hr 0 min 30 sec) 
Finished CPU 0 instructions: 10000000 cycles: 36517360 cumulative IPC: 0.273842 (Simulation time: 0 hr 0 min 34 sec) 

CPU 0 Branch Prediction Accuracy: 90.2713% MPKI: 19.1033 Average ROB Occupancy at Mispredict: 50.7069

ChampSim completed all CPUs

Region of Interest Statistics

CPU 0 cumulative IPC: 0.273842 instructions: 10000000 cycles: 36517360
L1D TOTAL     ACCESS:    6929490  HIT:    6476745  MISS:     452745
L1D LOAD      ACCESS:    2742030  HIT:    2461941  MISS:     280089
L1D RFO       ACCESS:    1079751  HIT:    1043378  MISS:      36373
L1D PREFETCH  ACCESS:    3107709  HIT:    2971426  MISS:     136283
L1D WRITEBACK ACCESS:          0  HIT:          0  MISS:          0
L1D PREFETCH  REQUESTED:   49815178  ISSUED:   46636244  USEFUL:      94560  USELESS:      62061
L1D AVERAGE MISS LATENCY: 105961 cycles
L1I TOTAL     ACCESS:    2005948  HIT:    2005948  MISS:          0
L1I LOAD      ACCESS:    2005948  HIT:    2005948  MISS:          0
L1I RFO       ACCESS:          0  HIT:          0  MISS:          0
L1I PREFETCH  ACCESS:          0  HIT:          0  MISS:          0
L1I WRITEBACK ACCESS:          0  HIT:          0  MISS:          0
L1I PREFETCH  REQUESTED:          0  ISSUED:          0  USEFUL:          0  USELESS:          0
L1I AVERAGE MISS LATENCY: -nan cycles
L2C TOTAL     ACCESS:    1628736  HIT:     944078  MISS:     684658
L2C LOAD      ACCESS:     277610  HIT:     117957  MISS:     159653
L2C RFO       ACCESS:      36282  HIT:       8306  MISS:      27976
L2C PREFETCH  ACCESS:    1262285  HIT:     765495  MISS:     496790
L2C WRITEBACK ACCESS:      52559  HIT:      52320  MISS:        239
L2C PREFETCH  REQUESTED:    2865407  ISSUED:    2030109  USEFUL:      51396  USELESS:     482188
L2C AVERAGE MISS LATENCY: 140.735 cycles
LLC TOTAL     ACCESS:     723445  HIT:     386246  MISS:     337199
LLC LOAD      ACCESS:     159278  HIT:      92458  MISS:      66820
LLC RFO       ACCESS:      27975  HIT:      25331  MISS:       2644
LLC PREFETCH  ACCESS:     497162  HIT:     229496  MISS:     267666
LLC WRITEBACK ACCESS:      39030  HIT:      38961  MISS:         69
LLC PREFETCH  REQUESTED:          0  ISSUED:          0  USEFUL:      22029  USELESS:     255599
LLC AVERAGE MISS LATENCY: 224.07 cycles
Major fault: 0 Minor fault: 3007

L1D -512>	(1,1)	(-260,1)	(27,4)	(0,9)	(143,1)	(-325,1)	(360,0)	(9,83)	(-1,2)	(-428,0)	(-78,0)	(-3,11)	(372,0)	(18,8)	(-24,0)	(212,0)	
L1D -511>	(1,6)	(0,2)	(1,0)	(1,0)	(1,0)	(1,0)	(1,0)	(1,0)	(1,0)	(1,0)	(1,0)	(1,0)	(1,0)	(1,0)	(1,0)	(1,0)	
L1D -510>	(0,1)	(1,0)	(1,0)	(1,0)	(1,0)	(1,0)	(1,0)	(1,0)	(1,0)	(1,0)	(1,0)	(1,0)	(1,0)	(1,0)	(1,0)	(1,0)	
L1D -509>	(0,6)	(1,2)	(1,0)	(1,0)	(1,0)	(1,0)	(1,0)	(1,0)	(1,0)	(1,0)	(1,0)	(1,0)	(1,0)	(1,0)	(1,0)	(1,0)	
L1D -508>	(0,12)	(188,1)	(117,1)	(508,4)	(32,2)	(24,1)	(212,1)	(488,1)	(136,1)	(1,2)	(324,1)	(52,1)	(12,1)	(304,1)	(2,1)	(9,1)	
L1D -507>	(247,1)	(3,1)	(351,3)	(403,1)	(260,2)	(0,2)	(104,1)	(390,1)	(143,1)	(72,1)	(78,1)	(442,1)	(27,1)	(273,2)	(481,2)	(286,1)	
L1D -506>	(272,1)	(456,1)	(0,4)	(-2,1)	(1,1)	(1,0)	(1,0)	(1,0)	(1,0)	(1,0)	(1,0)	(1,0)	(1,0)	(1,0)	(1,0)	(1,0)	
L1D -505>	(0,10)	(504,1)	(9,1)	(1,1)	(342,1)	(216,1)	(495,1)	(1,0)	(1,0)	(1,0)	(1,0)	(1,0)	(1,0)	(1,0)	(1,0)	(1,0)	
L1D -504>	(232,2)	(8,1)	(-2,2)	(0,16)	(2,2)	(423,3)	(504,7)	(240,1)	(452,1)	(408,1)	(344,1)	(184,1)	(320,1)	(284,1)	(356,1)	(342,1)	
L1D -503>	(0,2)	(117,1)	(503,1)	(3,1)	(1,0)	(1,0)	(1,0)	(1,0)	(1,0)	(1,0)	(1,0)	(1,0)	(1,0)	(1,0)	(1,0)	(1,0)	
L1D -502>	(0,5)	(502,2)	(1,2)	(501,1)	(2,5)	(-2,2)	(428,1)	(356,1)	(488,1)	(504,1)	(1,0)	(1,0)	(1,0)	(1,0)	(1,0)	(1,0)	
L1D -501>	(1,1)	(0,1)	(1,0)	(1,0)	(1,0)	(1,0)	(1,0)	(1,0)	(1,0)	(1,0)	(1,0)	(1,0)	(1,0)	(1,0)	(1,0)	(1,0)	
L1D -500>	(428,2)	(408,2)	(292,2)	(76,2)	(0,7)	(72,1)	(288,1)	(500,6)	(272,2)	(424,1)	(484,1)	(499,1)	(192,1)	(-2,2)	(296,1)	(412,2)	
L1D -499>	(498,1)	(0,4)	(36,1)	(-9,1)	(261,1)	(18,1)	(27,1)	(315,1)	(117,1)	(234,1)	(486,1)	(1,0)	(1,0)	(1,0)	(1,0)	(1,0)	
L1D -498>	(0,2)	(2,4)	(497,2)	(119,1)	(172,1)	(224,1)	(1,0)	(1,0)	(1,0)	(1,0)	(1,0)	(1,0)	(1,0)	(1,0)	(1,0)	(1,0)	
L1D -497>	(119,1)	(416,2)	(299,1)	(0,1)	(496,1)	(1,0)	(1,0)	(1,0)	(1,0)	(1,0)	(1,0)	(1,0)	(1,0)	(1,0)	(1,0)	(1,0)	
L1D -496>	(4,2)	(0,10)	(236,2)	(32,1)	(268,2)	(360,3)	(-2,2)	(428,1)	(120,1)	(121,1)	(196,1)	(45,1)	(18,1)	(52,1)	(495,2)	(64,1)	
L1D -495>	(0,12)	(27,2)	(270,1)	(495,9)	(45,2)	(494,1)	(36,2)	(126,1)	(99,1)	(450,1)	(315,1)	(117,1)	(207,1)	(1,0)	(1,0)	(1,0)	
L1D -494>	(169,9)	(0,12)	(221,3)	(13,3)	(364,3)	(494,10)	(65,2)	(78,11)	(260,2)	(273,2)	(351,1)	(91,2)	(156,3)	(286,2)	(455,4)	(338,3)	
L1D -493>	(0,1)	(492,1)	(360,1)	(159,1)	(1,0)	(1,0)	(1,0)	(1,0)	(1,0)	(1,0)	(1,0)	(1,0)	(1,0)	(1,0)	(1,0)	(1,0)	
L1D -492>	(492,5)	(360,2)	(416,1)	(0,12)	(320,1)	(491,1)	(328,2)	(208,1)	(484,1)	(148,1)	(129,1)	(-2,2)	(116,2)	(312,1)	(332,1)	(154,1)	
L1D -491>	(490,1)	(130,1)	(131,1)	(1,0)	(1,0)	(1,0)	(1,0)	(1,0)	(1,0)	(1,0)	(1,0)	(1,0)	(1,0)	(1,0)	(1,0)	(1,0)	
L1D -490>	(480,1)	(351,1)	(468,1)	(489,4)	(126,1)	(0,7)	(387,1)	(189,2)	(400,1)	(234,1)	(136,1)	(207,1)	(315,2)	(171,1)	(9,1)	(1,0)	
L1D -489>	(153,1)	(488,1)	(494,1)	(489,1)	(1,0)	(1,0)	(1,0)	(1,0)	(1,0)	(1,0)	(1,0)	(1,0)	(1,0)	(1,0)	(1,0)	(1,0)	
L1D -488>	(0,15)	(184,2)	(88,2)	(488,6)	(352,2)	(372,2)	(360,5)	(328,2)	(112,1)	(8,1)	(340,1)	(487,1)	(348,2)	(160,1)	(133,1)	(380,1)	
L1D -487>	(486,2)	(0,2)	(45,1)	(396,1)	(135,1)	(72,1)	(18,1)	(477,1)	(261,1)	(1,0)	(1,0)	(1,0)	(1,0)	(1,0)	(1,0)	(1,0)	
L1D -486>	(0,23)	(2,5)	(63,3)	(486,7)	(144,1)	(485,2)	(426,1)	(279,1)	(297,2)	(45,1)	(-2,2)	(504,1)	(18,2)	(153,1)	(315,1)	(171,1)	
L1D -485>	(360,1)	(0,1)	(260,1)	(69,1)	(1,0)	(1,0)	(1,0)	(1,0)	(1,0)	(1,0)	(1,0)	(1,0)	(1,0)	(1,0)	(1,0)	(1,0)	
L1D -484>	(436,2)	(0,28)	(320,3)	(484,14)	(348,1)	(428,1)	(508,1)	(60,3)	(483,2)	(252,1)	(492,1)	(164,1)	(13,2)	(272,1)	(136,2)	(482,1)	
L1D -483>	(136,1)	(137,1)	(-8,1)	(0,1)	(1,0)	(1,0)	(1,0)	(1,0)	(1,0)	(1,0)	(1,0)	(1,0)	(1,0)	(1,0)	(1,0)	(1,0)	
L1D -482>	(464,1)	(0,5)	(1,1)	(2,6)	(137,1)	(138,1)	(-2,2)	(204,1)	(84,1)	(140,1)	(484,2)	(364,1)	(481,1)	(1,0)	(1,0)	(1,0)	
L1D -481>	(-13,1)	(468,24)	(234,6)	(156,14)	(286,3)	(403,7)	(26,9)	(208,3)	(13,8)	(338,10)	(0,3)	(442,11)	(429,5)	(416,7)	(480,2)	(482,2)	
L1D -480>	(360,4)	(196,2)	(336,2)	(479,1)	(320,4)	(480,14)	(0,17)	(9,1)	(120,1)	(432,3)	(2,4)	(328,2)	(492,1)	(228,1)	(124,1)	(4,1)	
L1D -479>	(423,1)	(0,1)	(139,1)	(478,1)	(141,1)	(479,1)	(369,1)	(1,0)	(1,0)	(1,0)	(1,0)	(1,0)	(1,0)	(1,0)	(1,0)	(1,0)	
L1D -478>	(477,1)	(480,3)	(478,1)	(1,1)	(392,1)	(140,1)	(2,6)	(-9,1)	(306,1)	(171,1)	(0,6)	(432,1)	(459,1)	(-2,1)	(81,1)	(189,1)	
L1D -477>	(324,1)	(477,5)	(0,26)	(315,1)	(81,1)	(45,1)	(351,2)	(135,2)	(141,1)	(54,1)	(476,1)	(108,3)	(279,1)	(-18,1)	(198,1)	(288,1)	
L1D -476>	(68,2)	(136,3)	(0,29)	(-2,7)	(80,2)	(272,1)	(28,3)	(456,2)	(120,2)	(128,1)	(476,16)	(4,2)	(184,4)	(40,1)	(404,2)	(328,3)	
L1D -475>	(474,2)	(0,2)	(1,0)	(1,0)	(1,0)	(1,0)	(1,0)	(1,0)	(1,0)	(1,0)	(1,0)	(1,0)	(1,0)	(1,0)	(1,0)	(1,0)	
L1D -474>	(176,1)	(-2,2)	(2,4)	(476,2)	(216,1)	(472,1)	(122,1)	(80,2)	(0,3)	(28,1)	(120,1)	(-4,1)	(436,1)	(473,1)	(300,1)	(1,0)	
L1D -473>	(472,2)	(-1,1)	(210,1)	(1,0)	(1,0)	(1,0)	(1,0)	(1,0)	(1,0)	(1,0)	(1,0)	(1,0)	(1,0)	(1,0)	(1,0)	(1,0)	
L1D -472>	(252,2)	(0,33)	(470,3)	(212,2)	(168,1)	(-2,9)	(88,1)	(424,2)	(72,1)	(28,1)	(472,16)	(160,2)	(320,2)	(90,1)	(-4,1)	(368,4)	
L1D -471>	(360,2)	(470,3)	(208,4)	(390,1)	(91,1)	(299,1)	(468,3)	(377,1)	(1,0)	(1,0)	(1,0)	(1,0)	(1,0)	(1,0)	(1,0)	(1,0)	
L1D -470>	(2,4)	(-2,4)	(-10,3)	(1,1)	(-1,1)	(90,1)	(28,1)	(272,1)	(0,6)	(145,1)	(146,1)	(472,2)	(470,1)	(469,1)	(108,1)	(40,1)	
L1D -469>	(-27,1)	(0,4)	(468,2)	(207,1)	(405,1)	(189,1)	(1,0)	(1,0)	(1,0)	(1,0)	(1,0)	(1,0)	(1,0)	(1,0)	(1,0)	(1,0)	
L1D -468>	(0,73)	(2,4)	(390,6)	(338,9)	(429,27)	(172,1)	(468,56)	(65,6)	(26,7)	(299,4)	(260,9)	(221,8)	(312,26)	(247,3)	(416,5)	(108,3)	
L1D -467>	(148,1)	(0,1)	(466,1)	(1,0)	(1,0)	(1,0)	(1,0)	(1,0)	(1,0)	(1,0)	(1,0)	(1,0)	(1,0)	(1,0)	(1,0)	(1,0)	
L1D -466>	(2,8)	(0,3)	(465,5)	(468,3)	(-2,4)	(149,1)	(408,1)	(128,1)	(184,1)	(4,1)	(140,1)	(1,0)	(1,0)	(1,0)	(1,0)	(1,0)	
L1D -465>	(149,1)	(150,1)	(8,3)	(465,1)	(1,1)	(0,2)	(1,0)	(1,0)	(1,0)	(1,0)	(1,0)	(1,0)	(1,0)	(1,0)	(1,0)	(1,0)	
L1D -464>	(-2,10)	(0,22)	(200,2)	(356,2)	(400,3)	(12,2)	(1,2)	(292,2)	(328,2)	(464,11)	(40,3)	(172,1)	(248,2)	(284,1)	(128,1)	(48,4)	
L1D -463>	(0,9)	(151,1)	(342,1)	(180,1)	(405,2)	(462,2)	(54,1)	(369,1)	(2,1)	(108,1)	(1,0)	(1,0)	(1,0)	(1,0)	(1,0)	(1,0)	
L1D -462>	(8,17)	(2,11)	(0,5)	(9,1)	(464,5)	(-2,5)	(358,1)	(462,2)	(300,1)	(236,1)	(7,1)	(136,2)	(344,1)	(32,1)	(1,0)	(1,0)	
L1D -461>	(461,3)	(0,25)	(460,2)	(2,1)	(1,0)	(1,0)	(1,0)	(1,0)	(1,0)	(1,0)	(1,0)	(1,0)	(1,0)	(1,0)	(1,0)	(1,0)	
L1D -460>	(176,3)	(428,2)	(236,2)	(320,3)	(224,2)	(0,32)	(28,2)	(460,11)	(232,1)	(368,1)	(461,9)	(456,2)	(392,1)	(312,2)	(388,1)	(-2,13)	
L1D -459>	(342,2)	(459,19)	(0,36)	(-27,3)	(45,3)	(144,2)	(1,1)	(207,1)	(288,3)	(153,1)	(351,1)	(63,1)	(414,1)	(9,3)	(460,6)	(108,2)	
L1D -458>	(460,2)	(2,12)	(-2,1)	(458,8)	(0,37)	(457,8)	(68,1)	(459,10)	(62,1)	(152,1)	(220,1)	(296,1)	(-24,1)	(168,1)	(364,1)	(440,1)	
L1D -457>	(457,8)	(458,16)	(0,21)	(456,8)	(-10,3)	(303,1)	(304,1)	(250,1)	(440,2)	(224,1)	(455,1)	(1,0)	(1,0)	(1,0)	(1,0)	(1,0)	
L1D -456>	(216,2)	(456,25)	(88,2)	(368,1)	(457,15)	(432,2)	(340,1)	(0,52)	(320,2)	(244,1)	(476,3)	(-2,11)	(400,2)	(500,1)	(252,3)	(300,4)	
L1D -455>	(104,11)	(13,14)	(325,14)	(169,5)	(52,1)	(260,9)	(455,16)	(312,8)	(0,58)	(390,13)	(364,13)	(429,9)	(208,9)	(338,5)	(481,4)	(143,5)	
L1D -454>	(2,12)	(454,7)	(88,2)	(456,2)	(-2,2)	(453,10)	(360,1)	(222,1)	(10,2)	(457,1)	(455,15)	(92,1)	(0,32)	(65,1)	(157,1)	(292,1)	
L1D -453>	(453,5)	(454,14)	(452,11)	(0,19)	(213,1)	(275,1)	(65,1)	(66,1)	(268,1)	(115,1)	(224,1)	(277,1)	(108,1)	(302,1)	(1,1)	(62,1)	
L1D -452>	(0,51)	(184,3)	(72,5)	(-2,24)	(452,34)	(453,13)	(340,1)	(451,8)	(40,2)	(300,3)	(204,4)	(360,3)	(124,3)	(280,2)	(268,3)	(244,2)	
L1D -451>	(451,4)	(0,35)	(450,2)	(452,18)	(1,1)	(69,1)	(318,1)	(278,1)	(360,2)	(176,1)	(177,1)	(454,1)	(94,1)	(90,1)	(-18,2)	(-45,1)	
L1D -450>	(0,77)	(-2,4)	(450,33)	(2,11)	(198,2)	(234,1)	(451,16)	(333,2)	(449,4)	(-45,1)	(278,1)	(405,2)	(70,1)	(364,2)	(-9,4)	(243,2)	
L1D -449>	(450,12)	(0,27)	(448,6)	(449,3)	(71,1)	(72,1)	(182,1)	(183,1)	(1,3)	(101,1)	(236,1)	(425,1)	(1,0)	(1,0)	(1,0)	(1,0)	
L1D -448>	(464,2)	(448,25)	(-2,13)	(449,16)	(144,4)	(446,2)	(336,2)	(60,3)	(112,5)	(168,2)	(0,44)	(12,3)	(228,2)	(320,3)	(364,14)	(212,1)	
L1D -447>	(-8,21)	(448,11)	(446,3)	(396,1)	(1,2)	(0,28)	(337,1)	(447,5)	(111,1)	(304,1)	(94,1)	(102,1)	(240,1)	(65,1)	(172,1)	(308,1)	
L1D -446>	(446,10)	(447,14)	(0,25)	(1,1)	(164,1)	(296,1)	(-2,7)	(397,1)	(352,1)	(159,1)	(445,6)	(448,2)	(2,8)	(444,1)	(192,1)	(112,1)	
L1D -445>	(445,3)	(444,9)	(126,1)	(0,30)	(446,11)	(-63,1)	(161,1)	(78,2)	(338,1)	(297,1)	(443,1)	(308,1)	(52,1)	(442,1)	(364,1)	(143,7)	
L1D -444>	(268,2)	(20,4)	(340,1)	(28,4)	(428,3)	(232,1)	(-12,4)	(408,1)	(0,60)	(400,3)	(-2,22)	(444,23)	(402,1)	(420,1)	(164,5)	(228,2)	
L1D -443>	(444,23)	(0,26)	(443,8)	(442,7)	(164,1)	(96,1)	(59,1)	(68,1)	(69,1)	(427,1)	(1,1)	(1,0)	(1,0)	(1,0)	(1,0)	(1,0)	
L1D -442>	(442,83)	(0,52)	(468,9)	(443,22)	(450,1)	(78,35)	(364,10)	(182,35)	(-26,25)	(286,10)	(377,5)	(169,6)	(143,31)	(403,6)	(130,5)	(156,5)	
L1D -441>	(414,1)	(0,64)	(441,15)	(442,17)	(148,1)	(252,1)	(440,6)	(45,1)	(300,1)	(74,1)	(75,1)	(165,1)	(450,1)	(90,1)	(180,1)	(443,1)	
L1D -440>	(424,5)	(0,54)	(441,13)	(432,2)	(392,2)	(292,3)	(208,2)	(8,2)	(440,27)	(2,2)	(68,2)	(-2,18)	(224,3)	(64,2)	(-40,1)	(76,2)	
L1D -439>	(439,4)	(440,19)	(0,22)	(438,6)	(8,3)	(232,1)	(212,1)	(97,2)	(-2,1)	(107,1)	(252,1)	(73,1)	(441,1)	(429,1)	(1,0)	(1,0)	
L1D -438>	(2,11)	(0,26)	(439,11)	(346,1)	(-2,4)	(438,6)	(407,1)	(436,1)	(309,1)	(310,1)	(140,1)	(440,2)	(437,10)	(420,1)	(441,2)	(232,1)	
L1D -437>	(438,16)	(436,6)	(437,5)	(315,1)	(0,18)	(356,1)	(234,1)	(97,1)	(313,1)	(314,1)	(62,1)	(176,1)	(170,1)	(1,0)	(1,0)	(1,0)	
L1D -436>	(-2,10)	(324,2)	(436,25)	(437,19)	(440,1)	(-4,2)	(228,2)	(176,3)	(112,3)	(435,7)	(416,1)	(0,67)	(272,3)	(208,2)	(409,1)	(328,3)	
L1D -435>	(0,30)	(434,6)	(-9,1)	(316,1)	(436,14)	(1,2)	(280,1)	(114,1)	(68,1)	(435,4)	(317,1)	(234,1)	(259,1)	(170,1)	(1,0)	(1,0)	
L1D -434>	(2,17)	(434,9)	(435,13)	(433,8)	(432,1)	(436,3)	(1,1)	(0,29)	(77,1)	(4,1)	(268,2)	(-2,3)	(84,1)	(96,1)	(164,1)	(99,1)	
L1D -433>	(433,6)	(434,15)	(234,1)	(0,27)	(414,2)	(432,6)	(-72,1)	(-63,2)	(254,1)	(238,1)	(222,1)	(70,1)	(71,1)	(153,1)	(9,1)	(109,1)	
L1D -432>	(200,5)	(36,1)	(432,43)	(0,125)	(252,2)	(243,2)	(348,2)	(8,2)	(-24,2)	(-2,24)	(236,2)	(164,2)	(2,4)	(-44,3)	(430,5)	(260,2)	
L1D -431>	(431,8)	(0,38)	(374,1)	(432,13)	(430,6)	(78,1)	(174,1)	(382,1)	(-10,10)	(240,1)	(241,1)	(283,1)	(73,1)	(74,1)	(307,1)	(1,1)	
L1D -430>	(236,1)	(-2,4)	(0,24)	(430,9)	(1,4)	(429,7)	(2,39)	(432,3)	(164,1)	(431,14)	(416,1)	(382,1)	(383,1)	(-12,1)	(244,1)	(284,1)	
L1D -429>	(13,39)	(0,43)	(-13,10)	(65,14)	(402,1)	(430,13)	(26,7)	(247,12)	(169,11)	(117,14)	(104,18)	(403,18)	(364,40)	(338,37)	(260,10)	(299,9)	
L1D -428>	(2,8)	(0,54)	(404,2)	(232,4)	(260,3)	(428,48)	(264,82)	(429,17)	(427,8)	(-2,28)	(272,8)	(426,5)	(316,4)	(320,3)	(392,2)	(312,2)	
L1D -427>	(428,18)	(0,35)	(427,6)	(426,4)	(1,1)	(288,1)	(396,1)	(90,1)	(89,1)	(-81,1)	(162,1)	(80,1)	(81,1)	(104,1)	(323,1)	(324,1)	
L1D -426>	(0,27)	(2,23)	(426,11)	(427,14)	(8,3)	(425,8)	(306,2)	(88,1)	(-2,10)	(337,1)	(-60,1)	(224,1)	(257,1)	(246,1)	(285,1)	(428,3)	
L1D -425>	(-3,2)	(424,9)	(448,1)	(419,1)	(426,17)	(0,24)	(79,1)	(392,1)	(258,1)	(250,1)	(251,1)	(425,5)	(87,1)	(1,1)	(113,1)	(427,1)	
L1D -424>	(0,78)	(220,4)	(388,2)	(424,26)	(224,3)	(425,10)	(422,4)	(140,3)	(412,2)	(236,2)	(423,6)	(-2,21)	(228,1)	(208,5)	(60,2)	(352,2)	
L1D -423>	(0,81)	(243,4)	(424,18)	(423,33)	(216,2)	(189,4)	(-54,1)	(360,3)	(-63,1)	(234,2)	(333,3)	(27,3)	(422,5)	(378,1)	(351,2)	(135,4)	
L1D -422>	(-2,10)	(423,10)	(421,8)	(0,35)	(86,1)	(424,5)	(422,11)	(136,1)	(397,1)	(2,15)	(208,2)	(252,1)	(3,1)	(-36,1)	(420,3)	(172,1)	
L1D -421>	(-10,3)	(-8,20)	(421,8)	(0,23)	(422,18)	(420,3)	(419,1)	(178,1)	(233,1)	(234,1)	(425,1)	(71,1)	(1,1)	(275,1)	(276,1)	(82,1)	
L1D -420>	(421,12)	(124,3)	(0,64)	(420,25)	(252,3)	(76,4)	(376,2)	(440,3)	(200,2)	(424,2)	(276,2)	(-2,19)	(236,7)	(388,2)	(422,2)	(419,7)	
L1D -419>	(420,13)	(419,6)	(418,11)	(328,1)	(52,1)	(-10,15)	(377,1)	(0,43)	(403,1)	(338,5)	(221,1)	(65,1)	(236,1)	(237,1)	(26,1)	(364,1)	
L1D -418>	(2,17)	(0,38)	(225,1)	(420,4)	(417,9)	(418,3)	(419,16)	(427,1)	(-2,4)	(276,1)	(-10,1)	(27,2)	(207,1)	(138,1)	(260,1)	(376,1)	
L1D -417>	(417,7)	(77,1)	(429,1)	(59,1)	(81,1)	(418,16)	(416,8)	(352,1)	(0,14)	(398,1)	(260,1)	(286,1)	(419,1)	(2,1)	(209,1)	(88,1)	
L1D -416>	(416,61)	(104,32)	(-2,17)	(182,13)	(65,22)	(377,57)	(169,7)	(403,13)	(440,1)	(26,15)	(221,24)	(312,31)	(13,33)	(156,17)	(0,103)	(-39,27)	
L1D -415>	(64,1)	(0,30)	(416,19)	(60,1)	(414,2)	(179,1)	(45,1)	(1,1)	(2,1)	(-45,1)	(-54,1)	(109,1)	(110,1)	(-36,1)	(108,1)	(315,1)	
L1D -414>	(27,4)	(2,12)	(416,4)	(-2,7)	(0,98)	(63,5)	(413,7)	(256,1)	(9,4)	(414,32)	(415,16)	(225,2)	(18,3)	(153,2)	(99,2)	(423,2)	
L1D -413>	(414,14)	(413,6)	(0,20)	(1,1)	(415,1)	(357,1)	(80,1)	(-1,1)	(180,1)	(8,3)	(412,5)	(416,1)	(289,1)	(2,1)	(336,1)	(65,1)	
L1D -412>	(412,28)	(192,3)	(344,3)	(140,3)	(424,9)	(0,59)	(413,17)	(1,3)	(52,3)	(411,7)	(400,1)	(120,2)	(2,7)	(304,2)	(80,2)	(376,3)	
L1D -411>	(412,15)	(410,6)	(0,24)	(411,7)	(102,1)	(258,1)	(120,1)	(9,1)	(413,1)	(246,1)	(105,1)	(130,1)	(207,1)	(208,1)	(66,1)	(67,1)	
L1D -410>	(0,36)	(410,11)	(411,16)	(144,1)	(372,1)	(2,22)	(1,1)	(408,1)	(82,1)	(181,1)	(182,1)	(324,1)	(51,1)	(364,1)	(412,4)	(300,1)	
L1D -409>	(0,35)	(408,9)	(1,1)	(410,19)	(87,1)	(88,1)	(405,1)	(372,1)	(409,4)	(11,1)	(108,2)	(36,1)	(118,1)	(119,1)	(360,1)	(414,1)	
L1D -408>	(409,18)	(408,35)	(406,4)	(0,63)	(8,4)	(234,3)	(76,1)	(200,4)	(2,4)	(407,4)	(372,6)	(60,3)	(172,5)	(-2,5)	(88,3)	(360,6)	
L1D -407>	(407,8)	(408,20)	(0,22)	(406,8)	(409,2)	(67,1)	(374,1)	(184,1)	(263,1)	(264,1)	(16,1)	(17,1)	(372,1)	(339,1)	(340,1)	(2,1)	
L1D -406>	(2,20)	(408,7)	(406,10)	(405,8)	(-2,2)	(364,2)	(106,1)	(407,15)	(68,1)	(0,37)	(91,18)	(1,2)	(-8,2)	(221,1)	(59,1)	(12,1)	
L1D -405>	(404,5)	(0,101)	(405,19)	(406,15)	(99,2)	(297,4)	(-9,2)	(189,2)	(-10,3)	(441,3)	(1,1)	(374,1)	(396,2)	(261,1)	(432,2)	(288,2)	
L1D -404>	(403,8)	(328,4)	(124,4)	(0,79)	(120,3)	(404,45)	(92,7)	(405,21)	(252,5)	(32,1)	(376,2)	(316,2)	(240,2)	(-2,28)	(332,3)	(2,9)	
L1D -403>	(182,44)	(143,42)	(403,46)	(26,37)	(117,25)	(404,11)	(156,25)	(109,1)	(325,20)	(260,55)	(91,30)	(234,28)	(0,88)	(13,34)	(416,35)	(169,9)	
L1D -402>	(401,9)	(-2,9)	(403,23)	(2,25)	(353,1)	(126,1)	(402,4)	(444,1)	(196,1)	(0,30)	(404,3)	(324,1)	(90,1)	(1,1)	(-16,1)	(176,1)	
L1D -401>	(0,23)	(402,20)	(401,11)	(400,5)	(63,1)	(91,1)	(22,1)	(78,1)	(403,1)	(95,1)	(3,1)	(113,1)	(1,0)	(1,0)	(1,0)	(1,0)	
L1D -400>	(400,48)	(0,91)	(124,3)	(399,16)	(401,22)	(8,15)	(216,6)	(-56,6)	(-2,25)	(60,10)	(-84,5)	(312,4)	(176,1)	(76,3)	(264,2)	(80,6)	
L1D -399>	(106,1)	(107,1)	(0,27)	(399,5)	(398,8)	(297,1)	(400,22)	(63,1)	(262,2)	(263,2)	(3,1)	(118,1)	(135,1)	(221,1)	(99,1)	(401,1)	
L1D -398>	(224,1)	(0,30)	(196,1)	(-2,9)	(398,6)	(397,6)	(2,12)	(400,6)	(445,1)	(424,1)	(3,1)	(381,1)	(92,1)	(399,12)	(116,1)	(265,1)	
L1D -397>	(378,1)	(398,19)	(397,3)	(446,1)	(396,6)	(0,38)	(54,1)	(399,1)	(289,1)	(290,1)	(1,1)	(124,1)	(306,1)	(119,1)	(120,1)	(137,1)	
L1D -396>	(0,81)	(378,2)	(395,3)	(396,37)	(-2,3)	(24,2)	(340,2)	(397,2)	(172,2)	(216,1)	(248,1)	(428,1)	(-54,1)	(392,2)	(304,1)	(20,1)	
L1D -395>	(394,4)	(0,33)	(396,16)	(168,1)	(395,5)	(93,1)	(399,1)	(268,1)	(398,3)	(356,1)	(357,1)	(303,1)	(304,1)	(191,1)	(1,0)	(1,0)	
L1D -394>	(393,9)	(394,9)	(2,18)	(312,2)	(395,23)	(0,30)	(144,1)	(336,1)	(46,1)	(-74,1)	(-4,1)	(376,1)	(27,1)	(28,1)	(1,1)	(122,1)	
L1D -393>	(134,1)	(0,34)	(52,6)	(394,16)	(392,10)	(74,1)	(312,1)	(385,1)	(386,1)	(299,1)	(393,2)	(364,1)	(46,1)	(-13,6)	(266,1)	(91,1)	
L1D -392>	(392,41)	(0,86)	(-2,27)	(391,7)	(328,3)	(-10,3)	(393,22)	(-44,4)	(312,2)	(2,8)	(324,2)	(252,1)	(152,3)	(100,1)	(404,2)	(88,2)	
L1D -391>	(390,12)	(392,18)	(0,38)	(142,1)	(94,1)	(64,1)	(9,2)	(391,2)	(1,1)	(143,1)	(144,1)	(-54,1)	(310,1)	(389,1)	(45,1)	(393,1)	
L1D -390>	(26,23)	(0,103)	(389,1)	(39,17)	(182,13)	(2,29)	(325,17)	(143,12)	(390,30)	(391,20)	(13,13)	(130,15)	(273,17)	(52,22)	(234,37)	(312,10)	
L1D -389>	(388,8)	(0,18)	(389,7)	(151,1)	(390,14)	(189,1)	(293,1)	(36,1)	(271,1)	(1,1)	(147,1)	(148,1)	(106,1)	(360,1)	(361,1)	(391,1)	
L1D -388>	(396,5)	(436,1)	(388,36)	(224,5)	(387,15)	(0,72)	(336,2)	(8,2)	(68,3)	(220,2)	(76,6)	(200,6)	(-2,22)	(2,7)	(408,4)	(112,2)	
L1D -387>	(63,2)	(198,3)	(0,103)	(386,8)	(387,29)	(117,2)	(90,1)	(388,22)	(36,5)	(72,2)	(135,1)	(-45,2)	(351,2)	(279,2)	(8,2)	(126,4)	
L1D -386>	(220,1)	(0,40)	(2,31)	(244,1)	(386,10)	(387,18)	(385,11)	(240,1)	(264,1)	(108,1)	(214,1)	(12,1)	(-2,5)	(100,1)	(388,2)	(274,1)	
L1D -385>	(0,15)	(385,3)	(384,9)	(386,25)	(8,2)	(269,1)	(46,1)	(277,1)	(278,1)	(155,1)	(156,1)	(366,1)	(322,1)	(363,1)	(364,1)	(1,0)	
L1D -384>	(384,25)	(364,10)	(0,69)	(244,5)	(386,4)	(368,6)	(128,5)	(52,4)	(-2,37)	(336,1)	(124,3)	(152,2)	(-44,3)	(383,12)	(260,4)	(220,2)	
L1D -383>	(220,1)	(383,7)	(0,18)	(384,23)	(382,7)	(62,1)	(190,1)	(191,1)	(66,1)	(157,1)	(-1,1)	(367,1)	(368,1)	(268,1)	(78,1)	(105,1)	
L1D -382>	(126,1)	(2,14)	(381,6)	(0,46)	(383,28)	(382,8)	(208,1)	(84,1)	(1,2)	(62,1)	(63,1)	(384,8)	(333,1)	(194,1)	(-2,8)	(364,2)	
L1D -381>	(164,1)	(382,23)	(-39,1)	(380,7)	(0,23)	(1,1)	(4,3)	(-87,1)	(298,1)	(381,4)	(285,1)	(259,1)	(260,1)	(-60,1)	(158,1)	(159,1)	
L1D -380>	(360,3)	(256,5)	(208,2)	(380,34)	(-2,39)	(388,2)	(381,22)	(352,4)	(260,7)	(404,4)	(248,5)	(164,2)	(0,79)	(2,3)	(104,6)	(379,3)	
L1D -379>	(379,4)	(380,23)	(0,37)	(378,5)	(333,1)	(-117,1)	(90,1)	(97,1)	(98,1)	(-10,3)	(67,1)	(53,1)	(54,1)	(271,1)	(52,1)	(372,1)	
L1D -378>	(0,111)	(-2,8)	(378,30)	(243,3)	(36,2)	(377,6)	(171,2)	(-27,1)	(18,6)	(2,17)	(360,3)	(379,15)	(189,2)	(68,2)	(69,1)	(56,1)	
L1D -377>	(377,80)	(-13,29)	(26,20)	(221,23)	(403,18)	(351,16)	(52,55)	(13,26)	(378,25)	(65,25)	(299,39)	(78,37)	(0,1)	(208,8)	(39,24)	(481,28)	
L1D -376>	(396,3)	(-2,24)	(192,1)	(375,8)	(2,7)	(416,3)	(376,53)	(184,6)	(200,5)	(92,3)	(0,92)	(20,2)	(160,2)	(456,2)	(136,3)	(432,2)	
L1D -375>	(252,1)	(0,27)	(376,19)	(1,3)	(374,3)	(200,1)	(68,1)	(375,4)	(57,1)	(58,1)	(53,1)	(54,1)	(293,1)	(131,1)	(373,1)	(152,1)	
L1D -374>	(2,38)	(373,8)	(-2,8)	(12,2)	(374,6)	(0,20)	(375,29)	(190,1)	(73,1)	(74,1)	(-40,1)	(201,2)	(68,1)	(69,1)	(136,1)	(376,5)	
L1D -373>	(372,7)	(373,3)	(374,25)	(0,31)	(1,1)	(62,1)	(90,1)	(27,1)	(351,1)	(375,1)	(158,1)	(159,1)	(338,1)	(82,1)	(83,1)	(328,1)	
L1D -372>	(464,1)	(0,92)	(371,9)	(116,3)	(304,4)	(-2,35)	(372,60)	(408,3)	(370,2)	(2,10)	(28,3)	(373,19)	(140,3)	(124,3)	(-84,5)	(288,3)	
L1D -371>	(371,7)	(0,28)	(372,27)	(370,7)	(203,1)	(70,1)	(1,2)	(275,1)	(301,1)	(294,1)	(216,1)	(130,1)	(160,1)	(85,1)	(86,1)	(279,1)	
L1D -370>	(369,10)	(342,2)	(370,4)	(0,38)	(2,33)	(180,2)	(-48,1)	(-2,9)	(392,1)	(372,12)	(68,1)	(202,1)	(203,2)	(371,14)	(96,1)	(196,1)	
L1D -369>	(0,116)	(369,47)	(-8,4)	(27,2)	(99,3)	(315,2)	(297,3)	(252,3)	(368,9)	(243,1)	(189,2)	(360,3)	(370,21)	(261,2)	(18,5)	(54,2)	
L1D -368>	(-2,27)	(456,2)	(368,44)	(0,91)	(60,4)	(2,10)	(204,3)	(356,3)	(28,3)	(420,3)	(264,5)	(280,5)	(364,2)	(4,6)	(48,4)	(304,4)	
L1D -367>	(366,7)	(367,4)	(0,18)	(208,1)	(368,27)	(86,1)	(-8,2)	(13,1)	(71,1)	(63,1)	(269,1)	(303,1)	(60,1)	(61,1)	(268,1)	(369,1)	
L1D -366>	(2,28)	(366,10)	(0,36)	(365,8)	(224,2)	(-20,2)	(367,23)	(368,1)	(87,1)	(-2,15)	(101,1)	(156,1)	(-10,6)	(364,2)	(-52,2)	(64,1)	
L1D -365>	(365,8)	(364,13)	(366,22)	(0,18)	(1,1)	(101,1)	(302,1)	(13,1)	(91,1)	(345,1)	(346,1)	(263,1)	(209,1)	(210,1)	(1,0)	(1,0)	
L1D -364>	(364,126)	(0,113)	(124,3)	(164,3)	(-2,26)	(39,24)	(-76,1)	(448,33)	(240,8)	(312,30)	(26,26)	(325,30)	(78,14)	(286,31)	(182,21)	(117,33)	
L1D -363>	(362,11)	(364,27)	(363,6)	(218,1)	(-108,1)	(1,3)	(0,24)	(65,1)	(365,3)	(280,1)	(265,1)	(266,1)	(10,1)	(386,1)	(79,1)	(2,1)	
L1D -362>	(364,18)	(0,46)	(361,10)	(-2,9)	(362,13)	(363,26)	(2,64)	(12,1)	(-64,1)	(90,1)	(144,1)	(208,1)	(66,1)	(388,1)	(-80,1)	(67,1)	
L1D -361>	(360,12)	(-3,3)	(361,6)	(0,30)	(240,2)	(448,11)	(362,22)	(255,2)	(8,3)	(383,2)	(135,1)	(9,1)	(304,1)	(133,1)	(144,1)	(289,1)	
L1D -360>	(0,119)	(64,3)	(362,4)	(-18,3)	(400,1)	(81,3)	(52,2)	(360,64)	(-3,13)	(333,3)	(361,14)	(359,5)	(236,3)	(372,2)	(351,4)	(-2,40)	
L1D -359>	(0,26)	(359,9)	(357,1)	(358,9)	(360,27)	(361,1)	(210,1)	(72,1)	(67,1)	(68,1)	(135,1)	(69,1)	(70,1)	(137,1)	(16,1)	(183,1)	
L1D -358>	(108,1)	(2,23)	(357,8)	(360,26)	(358,6)	(0,31)	(177,1)	(152,1)	(1,1)	(-2,16)	(359,25)	(-4,1)	(112,2)	(72,1)	(270,1)	(20,1)	
L1D -357>	(1,1)	(357,5)	(0,22)	(356,6)	(358,31)	(-60,1)	(104,1)	(-13,1)	(360,1)	(73,1)	(71,1)	(271,1)	(137,1)	(305,1)	(145,1)	(146,1)	
L1D -356>	(-2,43)	(-88,6)	(-60,4)	(0,100)	(-48,6)	(368,4)	(-52,3)	(356,67)	(24,3)	(124,3)	(-64,4)	(232,1)	(264,3)	(357,28)	(44,3)	(156,2)	
L1D -355>	(354,5)	(355,4)	(0,32)	(18,1)	(131,1)	(356,30)	(358,1)	(94,1)	(95,1)	(74,2)	(73,1)	(306,1)	(288,1)	(1,4)	(252,1)	(308,1)	
L1D -354>	(338,6)	(36,4)	(353,8)	(0,50)	(354,8)	(180,2)	(2,20)	(-2,14)	(348,1)	(208,2)	(-61,1)	(-12,1)	(90,1)	(355,29)	(95,1)	(96,1)	
L1D -353>	(353,6)	(354,30)	(352,6)	(0,16)	(182,1)	(133,1)	(36,1)	(-8,1)	(96,1)	(97,1)	(-10,2)	(226,1)	(75,1)	(-43,1)	(76,1)	(287,1)	
L1D -352>	(340,1)	(44,5)	(120,4)	(352,53)	(0,95)	(92,6)	(-2,55)	(351,11)	(224,5)	(132,2)	(364,4)	(48,6)	(248,3)	(2,4)	(60,4)	(353,30)	
L1D -351>	(26,11)	(0,89)	(351,44)	(-13,10)	(162,3)	(312,25)	(208,26)	(299,8)	(169,13)	(156,25)	(260,14)	(364,16)	(195,21)	(403,6)	(-52,21)	(104,20)	
L1D -350>	(349,9)	(-8,13)	(350,9)	(351,30)	(13,5)	(0,24)	(-2,1)	(352,4)	(2,30)	(100,2)	(10,3)	(388,1)	(99,1)	(336,1)	(214,1)	(78,2)	
L1D -349>	(281,1)	(349,6)	(0,15)	(182,1)	(350,25)	(136,1)	(137,1)	(100,1)	(101,1)	(108,1)	(80,1)	(348,6)	(1,1)	(291,1)	(140,1)	(143,1)	
L1D -348>	(0,101)	(164,6)	(349,23)	(4,4)	(204,1)	(-2,34)	(180,3)	(-84,7)	(348,57)	(12,8)	(-68,5)	(224,3)	(347,7)	(168,2)	(44,2)	(452,3)	
L1D -347>	(346,5)	(347,6)	(0,34)	(348,26)	(142,1)	(350,1)	(109,1)	(110,1)	(215,1)	(58,1)	(292,1)	(293,1)	(338,2)	(1,2)	(145,1)	(281,1)	
L1D -346>	(36,1)	(0,38)	(-2,8)	(346,8)	(1,3)	(164,1)	(2,24)	(8,3)	(345,6)	(347,25)	(105,1)	(76,2)	(113,1)	(114,1)	(384,1)	(272,1)	
L1D -345>	(344,6)	(345,5)	(346,27)	(0,24)	(278,1)	(146,1)	(80,1)	(81,2)	(-156,1)	(147,1)	(148,1)	(348,1)	(320,1)	(154,1)	(29,1)	(156,1)	
L1D -344>	(16,4)	(344,55)	(2,1)	(-2,40)	(72,2)	(346,8)	(0,95)	(160,5)	(343,5)	(260,4)	(345,30)	(-32,3)	(196,2)	(324,7)	(128,5)	(448,3)	
L1D -343>	(342,13)	(343,7)	(345,2)	(0,28)	(281,1)	(156,1)	(344,27)	(116,1)	(117,1)	(-8,4)	(82,1)	(83,1)	(298,1)	(299,1)	(310,1)	(252,1)	
L1D -342>	(0,91)	(333,3)	(90,3)	(342,30)	(261,2)	(464,1)	(2,14)	(180,1)	(-36,1)	(279,1)	(343,20)	(243,3)	(344,6)	(-90,1)	(153,1)	(-2,6)	
L1D -341>	(340,7)	(341,9)	(0,26)	(342,27)	(282,1)	(390,2)	(260,3)	(83,1)	(300,1)	(301,1)	(2,2)	(149,1)	(150,1)	(92,1)	(93,1)	(-65,1)	
L1D -340>	(-4,4)	(272,1)	(356,2)	(0,86)	(16,4)	(340,45)	(160,7)	(341,32)	(64,4)	(68,3)	(339,14)	(-2,35)	(112,4)	(268,8)	(352,5)	(124,6)	
L1D -339>	(338,7)	(339,8)	(340,31)	(48,1)	(159,1)	(160,1)	(0,30)	(223,1)	(224,1)	(343,1)	(87,1)	(84,1)	(99,1)	(331,1)	(286,1)	(242,1)	
L1D -338>	(117,67)	(338,86)	(0,84)	(351,18)	(26,31)	(339,1)	(39,33)	(260,56)	(390,8)	(169,34)	(-65,53)	(208,26)	(91,38)	(78,24)	(182,24)	(195,20)	
L1D -337>	(337,4)	(338,28)	(0,30)	(-153,1)	(336,9)	(-8,2)	(88,1)	(13,6)	(1,1)	(309,1)	(311,1)	(26,1)	(339,1)	(-88,1)	(18,1)	(2,1)	
L1D -336>	(0,87)	(98,1)	(292,3)	(92,7)	(-2,39)	(336,62)	(288,4)	(64,2)	(-24,3)	(212,4)	(104,3)	(152,3)	(264,4)	(40,4)	(76,5)	(380,3)	
L1D -335>	(334,5)	(335,6)	(0,27)	(1,2)	(83,1)	(-135,1)	(8,7)	(161,1)	(336,23)	(86,2)	(337,1)	(312,1)	(313,1)	(2,1)	(333,1)	(254,1)	
L1D -334>	(48,2)	(-2,11)	(-76,2)	(334,11)	(0,38)	(335,31)	(192,1)	(-126,2)	(336,12)	(2,27)	(333,8)	(338,3)	(127,1)	(128,1)	(227,1)	(277,1)	
L1D -333>	(334,13)	(333,29)	(332,2)	(0,66)	(360,3)	(-9,3)	(180,1)	(108,2)	(315,2)	(342,3)	(261,1)	(153,1)	(299,1)	(9,1)	(324,1)	(171,3)	
L1D -332>	(-2,39)	(0,112)	(333,25)	(196,5)	(2,4)	(332,42)	(32,4)	(356,3)	(52,3)	(268,4)	(312,5)	(136,3)	(-100,1)	(124,2)	(320,5)	(104,3)	
L1D -331>	(330,9)	(331,10)	(0,26)	(332,33)	(86,1)	(164,1)	(329,1)	(106,1)	(364,1)	(339,1)	(294,1)	(295,1)	(-110,1)	(32,1)	(33,1)	(-159,2)	
L1D -330>	(2,19)	(-2,12)	(332,7)	(89,1)	(329,6)	(-8,5)	(330,11)	(234,2)	(331,26)	(-73,1)	(166,1)	(167,1)	(116,1)	(356,1)	(0,25)	(-24,1)	
L1D -329>	(328,7)	(329,4)	(331,1)	(330,30)	(1,2)	(0,26)	(284,1)	(228,1)	(-126,1)	(155,1)	(60,1)	(264,1)	(36,1)	(403,1)	(4,1)	(99,1)	
L1D -328>	(-2,19)	(220,2)	(327,3)	(0,71)	(332,2)	(276,2)	(164,2)	(328,32)	(329,16)	(2,2)	(196,2)	(292,1)	(12,2)	(256,2)	(-92,1)	(360,3)	
L1D -327>	(327,5)	(328,28)	(326,4)	(49,1)	(0,30)	(170,1)	(171,1)	(330,1)	(232,1)	(-126,1)	(-10,4)	(331,1)	(88,2)	(279,1)	(1,2)	(323,1)	
L1D -326>	(325,7)	(326,8)	(-52,2)	(0,38)	(312,1)	(2,30)	(24,1)	(327,27)	(-2,4)	(52,1)	(129,1)	(130,2)	(132,1)	(396,1)	(364,1)	(232,1)	
L1D -325>	(-39,16)	(0,111)	(182,39)	(325,75)	(52,21)	(208,51)	(156,41)	(316,1)	(65,29)	(39,95)	(-65,17)	(299,27)	(13,50)	(-78,18)	(143,55)	(481,25)	
L1D -324>	(0,110)	(128,3)	(2,7)	(92,4)	(304,1)	(325,9)	(288,2)	(-2,27)	(322,3)	(326,2)	(9,4)	(189,2)	(324,47)	(84,2)	(36,2)	(312,3)	
L1D -323>	(0,25)	(323,9)	(1,3)	(322,7)	(64,1)	(324,30)	(326,2)	(432,1)	(133,1)	(234,1)	(325,2)	(186,1)	(211,1)	(212,1)	(268,1)	(384,1)	
L1D -322>	(322,5)	(321,9)	(2,42)	(0,37)	(323,28)	(-2,12)	(8,16)	(324,7)	(318,1)	(135,1)	(234,1)	(235,1)	(-12,1)	(-132,1)	(-16,1)	(126,1)	
L1D -321>	(321,4)	(322,29)	(93,1)	(0,28)	(-74,1)	(320,11)	(141,1)	(372,1)	(330,1)	(157,1)	(158,1)	(338,2)	(323,1)	(430,1)	(41,1)	(1,1)	
L1D -320>	(320,55)	(0,88)	(2,13)	(-76,6)	(72,3)	(-2,52)	(-8,6)	(56,5)	(152,1)	(64,2)	(321,28)	(180,4)	(40,5)	(-40,3)	(12,6)	(244,6)	
L1D -319>	(319,4)	(318,3)	(320,30)	(0,38)	(93,1)	(138,1)	(99,2)	(95,1)	(162,1)	(90,2)	(280,1)	(60,2)	(61,1)	(317,1)	(64,1)	(197,1)	
L1D -318>	(1,3)	(320,7)	(2,32)	(-2,10)	(318,12)	(0,35)	(319,34)	(336,1)	(317,5)	(308,1)	(-184,1)	(-26,1)	(106,1)	(139,1)	(-40,1)	(-32,1)	
L1D -317>	(0,22)	(317,10)	(106,1)	(316,5)	(318,32)	(181,1)	(182,1)	(260,1)	(140,1)	(141,1)	(-8,2)	(91,1)	(333,1)	(234,1)	(161,1)	(302,1)	
L1D -316>	(316,88)	(84,1)	(-2,51)	(204,6)	(36,4)	(268,6)	(-124,2)	(-120,4)	(400,2)	(0,127)	(-92,2)	(56,6)	(248,3)	(80,6)	(315,9)	(332,2)	
L1D -315>	(0,112)	(315,47)	(45,4)	(54,2)	(324,5)	(314,5)	(316,14)	(234,3)	(-9,1)	(243,2)	(36,2)	(288,1)	(27,2)	(306,4)	(9,3)	(1,1)	
L1D -314>	(-2,22)	(2,36)	(313,8)	(0,55)	(314,15)	(315,28)	(-10,2)	(116,1)	(452,1)	(316,4)	(-8,1)	(144,1)	(-76,1)	(-184,1)	(380,1)	(96,1)	
L1D -313>	(312,3)	(313,6)	(0,26)	(66,1)	(-78,1)	(186,1)	(314,27)	(151,1)	(145,1)	(243,1)	(244,1)	(95,1)	(283,1)	(1,4)	(71,1)	(61,1)	
L1D -312>	(312,82)	(-2,20)	(60,1)	(-39,9)	(325,10)	(311,3)	(-143,10)	(-52,4)	(-12,1)	(0,82)	(260,14)	(429,3)	(39,13)	(403,11)	(247,29)	(234,16)	
L1D -311>	(1,1)	(148,1)	(311,7)	(0,23)	(310,11)	(-79,1)	(312,31)	(147,1)	(-10,2)	(314,1)	(72,1)	(360,1)	(336,1)	(309,1)	(349,1)	(69,1)	
L1D -310>	(-48,1)	(328,2)	(-2,15)	(2,34)	(310,11)	(0,49)	(217,1)	(312,5)	(311,30)	(192,1)	(96,1)	(-160,1)	(262,1)	(18,1)	(238,2)	(-16,2)	
L1D -309>	(312,1)	(309,8)	(1,2)	(308,12)	(-18,1)	(8,14)	(0,24)	(310,26)	(247,1)	(97,1)	(336,1)	(349,1)	(127,1)	(73,1)	(38,1)	(176,1)	
L1D -308>	(56,1)	(0,66)	(2,5)	(308,26)	(-2,25)	(-56,2)	(-16,1)	(307,5)	(-12,5)	(-136,0)	(-4,2)	(224,2)	(288,1)	(309,3)	(300,3)	(360,2)	
L1D -307>	(306,8)	(307,9)	(0,43)	(8,1)	(-81,1)	(193,1)	(194,1)	(308,33)	(36,1)	(98,2)	(360,1)	(117,1)	(2,1)	(3,1)	(220,1)	(51,1)	
L1D -306>	(432,2)	(0,110)	(2,25)	(297,2)	(306,41)	(307,22)	(305,3)	(-72,1)	(216,2)	(99,1)	(279,1)	(18,4)	(-54,2)	(315,2)	(207,3)	(-2,2)	
L1D -305>	(0,23)	(1,1)	(-13,4)	(306,28)	(305,6)	(19,1)	(92,1)	(194,1)	(304,8)	(249,2)	(169,1)	(99,1)	(307,2)	(168,1)	(312,1)	(4,1)	
L1D -304>	(0,124)	(360,8)	(-2,57)	(302,3)	(2,11)	(76,1)	(303,6)	(-72,3)	(304,78)	(305,32)	(128,8)	(-76,4)	(356,5)	(-48,82)	(60,3)	(332,4)	
L1D -303>	(303,8)	(0,29)	(302,11)	(4,4)	(1,2)	(304,30)	(68,1)	(-151,1)	(289,1)	(91,1)	(-113,1)	(366,1)	(136,1)	(6,1)	(7,1)	(226,1)	
L1D -302>	(2,15)	(356,1)	(312,7)	(302,8)	(0,47)	(303,30)	(232,1)	(380,1)	(36,1)	(304,10)	(260,1)	(197,1)	(198,1)	(-2,5)	(308,1)	(-76,1)	
L1D -301>	(300,7)	(301,9)	(-10,26)	(-189,1)	(0,30)	(302,32)	(165,1)	(234,1)	(162,1)	(99,1)	(94,1)	(371,1)	(92,1)	(18,1)	(27,2)	(170,1)	
L1D -300>	(364,3)	(300,54)	(0,122)	(-2,47)	(148,4)	(228,3)	(20,5)	(2,15)	(100,3)	(188,4)	(304,3)	(196,4)	(4,3)	(301,36)	(236,1)	(136,3)	
L1D -299>	(299,37)	(-8,10)	(338,15)	(0,67)	(52,25)	(312,34)	(69,1)	(364,28)	(143,12)	(26,14)	(-104,8)	(286,28)	(234,14)	(91,16)	(-39,9)	(351,15)	
L1D -298>	(-2,8)	(292,1)	(2,26)	(298,10)	(297,12)	(-88,1)	(-60,1)	(424,1)	(299,30)	(-160,1)	(0,48)	(168,1)	(10,2)	(-10,2)	(100,1)	(216,1)	
L1D -297>	(297,40)	(18,4)	(296,5)	(-36,1)	(0,100)	(298,18)	(144,1)	(171,2)	(279,2)	(162,1)	(108,2)	(-72,1)	(99,3)	(-9,3)	(288,1)	(110,1)	
L1D -296>	(244,8)	(297,29)	(300,5)	(0,113)	(148,7)	(-2,57)	(2,10)	(76,3)	(184,4)	(68,1)	(296,66)	(-84,3)	(52,6)	(388,2)	(224,2)	(380,2)	
L1D -295>	(338,1)	(157,1)	(295,10)	(296,29)	(-147,1)	(294,3)	(206,1)	(0,28)	(254,1)	(102,2)	(103,1)	(99,1)	(100,1)	(174,1)	(268,1)	(14,2)	
L1D -294>	(2,29)	(293,7)	(296,4)	(294,9)	(212,1)	(292,2)	(328,1)	(248,1)	(0,38)	(208,1)	(224,1)	(-2,10)	(56,1)	(295,32)	(174,1)	(192,1)	
L1D -293>	(292,10)	(293,5)	(0,26)	(294,29)	(4,1)	(360,2)	(209,1)	(175,2)	(104,1)	(146,1)	(1,2)	(16,1)	(17,1)	(20,2)	(401,1)	(74,1)	
L1D -292>	(292,43)	(0,72)	(96,3)	(132,1)	(293,15)	(44,3)	(276,2)	(-2,30)	(168,4)	(-56,4)	(224,3)	(32,37)	(-3,8)	(220,2)	(-4,4)	(2,5)	
L1D -291>	(1,1)	(-8,11)	(291,6)	(0,35)	(292,32)	(290,11)	(-89,1)	(212,1)	(261,2)	(168,1)	(169,1)	(105,1)	(106,1)	(294,1)	(244,1)	(218,1)	
L1D -290>	(289,10)	(-2,14)	(290,12)	(291,30)	(0,42)	(4,3)	(72,1)	(2,34)	(128,1)	(292,8)	(162,1)	(216,1)	(1,2)	(176,1)	(252,1)	(116,1)	
L1D -289>	(-27,1)	(161,1)	(221,21)	(-13,1)	(289,8)	(299,20)	(290,34)	(239,1)	(-3,1)	(0,39)	(52,1)	(288,11)	(182,1)	(258,1)	(-10,1)	(-8,3)	
L1D -288>	(288,73)	(0,127)	(56,3)	(84,1)	(-10,10)	(340,2)	(372,2)	(289,9)	(261,4)	(-168,5)	(-2,30)	(279,4)	(320,2)	(144,2)	(212,2)	(192,3)	
L1D -287>	(73,1)	(286,11)	(287,6)	(222,2)	(288,29)	(0,27)	(214,1)	(209,1)	(181,1)	(182,1)	(171,1)	(60,1)	(352,1)	(111,1)	(415,1)	(103,1)	
L1D -286>	(0,103)	(234,37)	(-65,8)	(-13,29)	(312,28)	(2,17)	(169,44)	(287,1)	(208,20)	(156,31)	(442,6)	(143,38)	(286,43)	(273,19)	(195,13)	(325,33)	
L1D -285>	(-114,1)	(284,11)	(285,11)	(0,27)	(1,2)	(286,29)	(175,1)	(61,1)	(62,1)	(425,1)	(108,1)	(109,1)	(181,1)	(158,1)	(83,1)	(84,1)	
L1D -284>	(-12,2)	(284,36)	(2,6)	(4,2)	(336,2)	(282,2)	(104,2)	(200,3)	(276,1)	(-2,30)	(-168,2)	(204,2)	(32,3)	(112,2)	(0,66)	(304,2)	
L1D -283>	(287,1)	(167,1)	(283,7)	(284,28)	(282,8)	(8,6)	(0,39)	(279,1)	(-162,2)	(104,1)	(105,1)	(72,1)	(73,1)	(109,1)	(110,1)	(2,1)	
L1D -282>	(-2,12)	(2,38)	(282,10)	(281,12)	(284,13)	(0,39)	(140,2)	(264,1)	(88,1)	(368,1)	(220,1)	(1,3)	(283,27)	(191,1)	(128,1)	(84,1)	
L1D -281>	(-18,2)	(281,9)	(0,17)	(280,9)	(4,1)	(8,15)	(282,29)	(283,1)	(-108,1)	(268,1)	(317,1)	(113,1)	(114,1)	(110,1)	(111,1)	(-2,2)	
L1D -280>	(236,1)	(280,26)	(0,64)	(168,2)	(-92,3)	(28,1)	(248,1)	(-2,28)	(-60,2)	(-120,2)	(288,3)	(2,4)	(278,1)	(-48,2)	(384,2)	(-28,2)	
L1D -279>	(0,77)	(288,3)	(279,32)	(351,4)	(270,3)	(-135,1)	(278,3)	(117,1)	(297,1)	(90,3)	(261,1)	(280,11)	(-90,1)	(369,1)	(126,3)	(281,1)	
L1D -278>	(277,9)	(2,35)	(60,2)	(278,9)	(0,53)	(-2,5)	(424,2)	(208,1)	(280,10)	(88,1)	(70,1)	(-48,1)	(384,1)	(279,29)	(281,3)	(195,1)	
L1D -277>	(276,9)	(277,7)	(0,28)	(126,1)	(278,32)	(221,1)	(1,1)	(188,1)	(-152,2)	(110,2)	(111,1)	(109,1)	(453,1)	(118,1)	(119,1)	(172,1)	
L1D -276>	(0,96)	(80,3)	(-2,33)	(32,2)	(284,8)	(52,3)	(275,5)	(316,2)	(136,3)	(12,1)	(-108,2)	(276,50)	(72,1)	(88,5)	(148,2)	(96,2)	
L1D -275>	(8,1)	(275,10)	(0,50)	(276,34)	(274,8)	(225,1)	(453,1)	(260,1)	(261,1)	(-10,5)	(111,2)	(105,1)	(268,1)	(190,1)	(37,1)	(34,1)	
L1D -274>	(476,1)	(273,12)	(296,1)	(274,11)	(0,59)	(-157,1)	(2,30)	(275,32)	(209,1)	(210,1)	(-2,16)	(276,8)	(268,1)	(112,1)	(92,2)	(1,2)	
L1D -273>	(1,1)	(273,50)	(0,69)	(130,37)	(221,27)	(13,24)	(65,37)	(260,21)	(-117,19)	(-26,39)	(390,10)	(312,21)	(78,25)	(-65,20)	(481,14)	(156,17)	
L1D -272>	(-2,28)	(-20,3)	(252,2)	(0,75)	(268,1)	(80,1)	(308,2)	(-4,1)	(240,3)	(88,3)	(272,37)	(276,3)	(224,2)	(104,3)	(364,2)	(273,12)	
L1D -271>	(271,8)	(270,9)	(77,1)	(0,40)	(-158,1)	(246,1)	(272,29)	(356,1)	(-153,1)	(195,1)	(-18,1)	(273,1)	(-117,1)	(268,1)	(4,1)	(144,1)	
L1D -270>	(8,9)	(0,82)	(-27,2)	(135,1)	(279,3)	(270,35)	(271,12)	(269,3)	(180,1)	(27,2)	(216,1)	(-2,4)	(-9,1)	(2,11)	(108,1)	(351,1)	
L1D -269>	(268,15)	(269,10)	(1,5)	(80,1)	(0,36)	(-105,1)	(270,30)	(-79,1)	(114,1)	(4,1)	(358,1)	(127,1)	(393,1)	(307,1)	(98,1)	(206,1)	
L1D -268>	(0,75)	(148,3)	(268,39)	(68,4)	(2,8)	(267,4)	(40,1)	(52,2)	(256,3)	(-32,3)	(-2,28)	(372,2)	(76,3)	(269,15)	(-112,2)	(-64,3)	
L1D -267>	(266,7)	(267,9)	(268,32)	(0,37)	(4,1)	(198,1)	(199,1)	(2,1)	(113,1)	(116,1)	(392,1)	(127,1)	(150,1)	(100,1)	(371,1)	(43,1)	
L1D -266>	(266,12)	(265,7)	(2,33)	(0,47)	(432,1)	(268,13)	(-2,9)	(60,2)	(267,34)	(260,1)	(236,1)	(237,1)	(400,1)	(1,2)	(240,1)	(241,1)	
L1D -265>	(81,1)	(-8,40)	(265,11)	(-1,1)	(0,34)	(266,29)	(-108,1)	(264,6)	(203,1)	(45,1)	(267,2)	(-9,2)	(117,2)	(118,1)	(404,1)	(171,1)	
L1D -264>	(264,37)	(2,4)	(0,76)	(84,3)	(304,2)	(-16,2)	(263,3)	(164,2)	(144,2)	(-2,29)	(252,2)	(288,2)	(372,2)	(-120,2)	(192,1)	(312,1)	
L1D -263>	(262,11)	(82,1)	(78,2)	(263,7)	(264,29)	(99,1)	(0,44)	(237,1)	(238,1)	(2,1)	(234,5)	(39,4)	(247,2)	(120,1)	(442,4)	(182,12)	
L1D -262>	(152,2)	(264,6)	(83,1)	(2,44)	(262,11)	(261,7)	(0,52)	(166,1)	(-10,22)	(263,33)	(-2,17)	(271,1)	(206,1)	(207,1)	(-162,1)	(460,1)	
L1D -261>	(0,66)	(72,1)	(252,2)	(90,3)	(261,25)	(260,3)	(135,1)	(189,1)	(126,2)	(279,1)	(234,2)	(99,1)	(-81,1)	(27,1)	(342,1)	(262,8)	
L1D -260>	(260,96)	(195,31)	(-2,15)	(0,120)	(364,16)	(286,12)	(351,10)	(164,1)	(130,13)	(292,4)	(208,36)	(221,21)	(-52,7)	(26,29)	(91,15)	(312,9)	
L1D -259>	(0,49)	(259,6)	(260,32)	(10,3)	(87,1)	(44,1)	(-10,2)	(115,1)	(125,1)	(422,1)	(180,1)	(377,1)	(258,6)	(134,1)	(135,1)	(203,1)	
L1D -258>	(4,2)	(257,15)	(260,11)	(0,41)	(2,55)	(258,9)	(182,1)	(-2,16)	(-192,1)	(242,1)	(236,1)	(436,1)	(259,27)	(288,1)	(424,1)	(181,1)	
L1D -257>	(256,13)	(257,6)	(0,36)	(258,30)	(88,1)	(8,16)	(212,1)	(291,1)	(126,1)	(-2,2)	(7,4)	(2,2)	(259,1)	(94,1)	(5,1)	(117,1)	
L1D -256>	(16,1)	(0,105)	(256,57)	(216,2)	(212,3)	(-172,2)	(-2,28)	(257,12)	(168,2)	(192,4)	(36,7)	(2,10)	(184,2)	(-92,4)	(52,4)	(76,2)	
L1D -255>	(254,8)	(255,7)	(0,30)	(256,35)	(2,1)	(12,1)	(245,1)	(246,1)	(455,3)	(213,1)	(214,2)	(3,1)	(442,2)	(4,1)	(-63,1)	(148,1)	
L1D -254>	(-72,2)	(0,46)	(254,9)	(253,15)	(255,30)	(420,1)	(256,12)	(-24,1)	(-2,13)	(2,34)	(24,1)	(248,2)	(249,1)	(1,1)	(-192,1)	(216,1)	
L1D -253>	(94,1)	(250,2)	(0,40)	(14,1)	(253,8)	(254,30)	(60,1)	(190,1)	(191,1)	(43,1)	(44,1)	(63,2)	(92,1)	(171,1)	(107,1)	(175,1)	
L1D -252>	(36,3)	(126,1)	(0,74)	(156,1)	(253,6)	(2,3)	(-2,13)	(252,42)	(225,1)	(251,2)	(348,1)	(8,1)	(-8,2)	(-18,1)	(44,1)	(28,3)	
L1D -251>	(26,1)	(251,5)	(-178,1)	(0,48)	(252,32)	(250,16)	(-1,1)	(31,1)	(222,1)	(46,1)	(201,1)	(223,1)	(-91,1)	(2,2)	(52,1)	(133,1)	
L1D -250>	(-2,9)	(169,3)	(249,10)	(0,71)	(455,6)	(250,14)	(251,35)	(253,2)	(252,9)	(-13,4)	(100,1)	(-11,1)	(15,1)	(2,41)	(338,1)	(94,1)	
L1D -249>	(2,1)	(189,1)	(249,9)	(0,41)	(248,10)	(-164,1)	(264,1)	(18,1)	(61,1)	(62,1)	(3,2)	(250,29)	(224,2)	(304,1)	(-10,3)	(118,1)	
L1D -248>	(-2,35)	(40,2)	(249,6)	(0,91)	(248,57)	(304,4)	(124,3)	(-28,3)	(-160,2)	(112,2)	(192,7)	(-32,1)	(288,2)	(2,8)	(180,2)	(56,1)	
L1D -247>	(-13,82)	(26,52)	(208,38)	(0,111)	(377,20)	(180,1)	(-26,45)	(52,63)	(286,22)	(247,114)	(117,46)	(195,38)	(91,62)	(299,39)	(221,34)	(-78,86)	
L1D -246>	(428,3)	(0,55)	(245,8)	(248,10)	(246,13)	(247,35)	(1,4)	(10,2)	(76,1)	(2,29)	(-2,11)	(-118,1)	(90,1)	(88,1)	(488,1)	(308,1)	
L1D -245>	(4,1)	(245,9)	(246,36)	(277,1)	(244,13)	(0,32)	(-12,1)	(256,1)	(1,3)	(232,1)	(2,1)	(428,1)	(159,1)	(50,1)	(99,1)	(100,1)	
L1D -244>	(60,2)	(204,2)	(0,82)	(-2,34)	(194,1)	(243,4)	(8,3)	(-64,3)	(148,4)	(-92,4)	(244,37)	(164,3)	(245,19)	(28,3)	(224,3)	(-120,1)	
L1D -243>	(99,4)	(0,87)	(244,13)	(9,4)	(333,1)	(243,36)	(270,1)	(234,2)	(-9,6)	(27,1)	(126,1)	(242,2)	(171,1)	(18,1)	(-126,1)	(135,1)	
L1D -242>	(2,37)	(244,6)	(241,4)	(242,9)	(416,2)	(243,34)	(1,3)	(100,1)	(281,1)	(65,3)	(0,55)	(-2,18)	(-13,1)	(258,1)	(66,1)	(92,1)	
L1D -241>	(14,1)	(241,10)	(0,35)	(242,32)	(240,13)	(1,2)	(-193,2)	(120,1)	(2,1)	(161,1)	(162,1)	(102,1)	(103,1)	(113,1)	(117,1)	(131,1)	
L1D -240>	(364,4)	(240,43)	(-172,2)	(-56,1)	(200,4)	(2,8)	(-2,36)	(92,4)	(0,96)	(252,4)	(-20,3)	(224,4)	(-80,3)	(-28,1)	(28,4)	(88,3)	
L1D -239>	(238,8)	(239,6)	(0,34)	(1,3)	(16,1)	(66,1)	(240,33)	(52,1)	(-8,2)	(273,1)	(442,2)	(4,2)	(260,1)	(162,1)	(114,1)	(237,1)	
L1D -238>	(2,33)	(440,1)	(224,1)	(238,7)	(239,30)	(67,1)	(-16,2)	(-15,1)	(237,9)	(-2,18)	(-56,1)	(0,56)	(216,2)	(240,5)	(-208,1)	(63,2)	
L1D -237>	(18,1)	(236,13)	(325,2)	(416,3)	(237,10)	(-195,18)	(0,49)	(238,33)	(293,1)	(9,1)	(221,20)	(68,1)	(69,1)	(99,1)	(1,3)	(104,2)	
L1D -236>	(236,41)	(-2,25)	(0,94)	(-136,3)	(220,1)	(238,4)	(2,8)	(176,2)	(280,3)	(8,6)	(235,9)	(48,2)	(212,6)	(196,2)	(116,2)	(32,5)	
L1D -235>	(234,15)	(235,16)	(236,36)	(70,2)	(37,1)	(0,43)	(71,1)	(268,3)	(238,1)	(165,1)	(68,1)	(69,1)	(-89,1)	(107,1)	(108,1)	(20,2)	
L1D -234>	(65,12)	(0,78)	(-117,12)	(2,8)	(-2,1)	(234,50)	(312,4)	(-158,8)	(-78,11)	(13,19)	(208,20)	(261,2)	(-13,9)	(-156,7)	(78,14)	(-65,13)	
L1D -233>	(232,7)	(233,8)	(234,34)	(41,1)	(73,1)	(0,40)	(364,3)	(71,2)	(72,2)	(10,3)	(324,1)	(195,1)	(196,1)	(5,1)	(171,1)	(172,1)	
L1D -232>	(88,4)	(300,1)	(-2,46)	(44,5)	(376,2)	(-240,2)	(0,96)	(136,2)	(184,2)	(108,2)	(168,4)	(216,25)	(232,47)	(233,23)	(230,4)	(104,3)	
L1D -231>	(1,1)	(231,9)	(232,31)	(0,46)	(75,1)	(26,1)	(8,11)	(-126,1)	(272,1)	(230,5)	(4,1)	(229,1)	(20,1)	(6,1)	(60,1)	(443,1)	
L1D -230>	(-2,23)	(0,53)	(232,11)	(229,19)	(2,55)	(230,16)	(184,1)	(35,1)	(231,34)	(76,1)	(216,1)	(32,1)	(304,1)	(-19,1)	(188,2)	(160,2)	
L1D -229>	(-72,1)	(-3,13)	(229,10)	(230,38)	(77,1)	(27,1)	(0,40)	(-127,1)	(74,1)	(228,13)	(8,4)	(61,1)	(1,4)	(231,1)	(246,1)	(73,1)	
L1D -228>	(0,124)	(228,75)	(-2,59)	(-184,39)	(-64,6)	(128,4)	(48,4)	(-196,1)	(276,4)	(226,4)	(-52,14)	(-144,12)	(229,26)	(-220,3)	(252,4)	(456,3)	
L1D -227>	(226,12)	(227,11)	(0,46)	(228,35)	(54,1)	(1,1)	(62,1)	(10,1)	(147,1)	(79,1)	(210,1)	(149,1)	(212,1)	(86,1)	(229,1)	(74,1)	
L1D -226>	(0,70)	(225,20)	(-2,16)	(226,12)	(227,33)	(224,1)	(216,1)	(468,1)	(2,39)	(-20,1)	(52,1)	(228,12)	(-227,1)	(63,1)	(-228,1)	(-116,1)	
L1D -225>	(-126,2)	(0,66)	(225,19)	(9,3)	(224,2)	(117,2)	(226,8)	(43,1)	(-145,1)	(228,1)	(-153,1)	(-135,2)	(-99,1)	(99,1)	(-216,1)	(216,1)	
L1D -224>	(2,12)	(224,65)	(92,101)	(-4,11)	(112,1)	(-60,1)	(223,8)	(68,2)	(-200,1)	(252,3)	(0,117)	(-248,2)	(428,1)	(-2,51)	(64,2)	(168,7)	
L1D -223>	(222,9)	(223,7)	(224,35)	(118,1)	(9,2)	(0,53)	(-132,1)	(-10,7)	(1,2)	(249,1)	(62,1)	(63,1)	(8,1)	(151,1)	(152,1)	(27,1)	
L1D -222>	(2,39)	(36,1)	(211,1)	(222,15)	(-51,1)	(223,41)	(-170,1)	(221,8)	(-2,17)	(224,14)	(152,1)	(-22,1)	(0,59)	(-72,1)	(144,1)	(256,1)	
L1D -221>	(182,53)	(3,1)	(-3,3)	(481,3)	(130,26)	(52,57)	(0,118)	(-117,13)	(338,30)	(260,25)	(325,7)	(299,23)	(169,41)	(403,10)	(208,32)	(221,69)	
L1D -220>	(219,6)	(220,71)	(-32,6)	(0,119)	(-2,45)	(172,4)	(-36,4)	(208,1)	(212,3)	(180,4)	(164,2)	(76,7)	(221,20)	(16,2)	(68,2)	(268,4)	
L1D -219>	(1,2)	(218,12)	(219,6)	(0,42)	(220,39)	(42,1)	(86,1)	(14,1)	(15,1)	(144,1)	(58,1)	(63,1)	(154,1)	(155,1)	(92,1)	(70,1)	
L1D -218>	(217,15)	(0,67)	(-2,12)	(220,13)	(218,17)	(-244,1)	(219,36)	(2,42)	(188,1)	(17,1)	(18,1)	(8,16)	(-240,1)	(-88,1)	(64,1)	(-68,1)	
L1D -217>	(44,1)	(217,5)	(218,32)	(1,3)	(-1,1)	(216,14)	(0,45)	(18,2)	(19,1)	(22,1)	(79,1)	(66,2)	(65,1)	(346,1)	(12,2)	(157,1)	
L1D -216>	(0,80)	(9,2)	(-234,2)	(-9,6)	(117,4)	(396,2)	(-36,3)	(217,7)	(36,1)	(-44,2)	(140,1)	(192,1)	(-64,1)	(216,36)	(48,1)	(-2,14)	
L1D -215>	(81,1)	(214,8)	(44,2)	(8,2)	(1,4)	(215,7)	(216,34)	(0,38)	(23,1)	(24,1)	(-136,1)	(80,1)	(217,2)	(67,2)	(-2,1)	(66,1)	
L1D -214>	(2,54)	(213,10)	(1,1)	(214,10)	(0,80)	(215,33)	(364,2)	(216,13)	(-2,19)	(24,2)	(25,2)	(290,1)	(81,1)	(328,1)	(212,3)	(336,1)	
L1D -213>	(1,4)	(49,1)	(213,8)	(52,1)	(136,10)	(314,1)	(90,1)	(91,1)	(0,46)	(212,13)	(-10,1)	(214,28)	(-8,23)	(255,1)	(70,1)	(22,1)	
L1D -212>	(92,5)	(52,2)	(-2,46)	(156,2)	(2,6)	(0,89)	(212,57)	(68,2)	(213,2)	(-52,3)	(-36,1)	(211,11)	(420,1)	(44,3)	(244,2)	(88,2)	
L1D -211>	(210,15)	(50,1)	(211,7)	(212,32)	(317,1)	(0,57)	(35,1)	(30,1)	(31,1)	(247,1)	(292,1)	(-13,1)	(68,1)	(364,1)	(312,1)	(-225,1)	
L1D -210>	(-10,3)	(209,22)	(-2,15)	(2,46)	(210,13)	(211,39)	(1,3)	(0,67)	(112,2)	(116,2)	(-184,1)	(280,1)	(-138,1)	(212,6)	(68,1)	(-68,1)	
L1D -209>	(51,1)	(210,37)	(92,1)	(209,4)	(-173,1)	(0,49)	(36,3)	(-24,1)	(32,1)	(33,1)	(-64,1)	(293,1)	(208,15)	(69,1)	(360,1)	(16,1)	
L1D -208>	(-26,12)	(143,8)	(2,5)	(0,67)	(13,12)	(-2,13)	(39,16)	(207,6)	(182,11)	(-50,1)	(91,7)	(208,47)	(299,9)	(117,9)	(65,13)	(104,11)	
L1D -207>	(0,68)	(4,1)	(18,2)	(207,28)	(-27,1)	(117,1)	(206,5)	(-18,1)	(243,1)	(-153,1)	(333,1)	(9,1)	(-90,1)	(99,2)	(126,1)	(208,8)	
L1D -206>	(2,37)	(-2,29)	(120,1)	(230,1)	(205,22)	(206,12)	(325,1)	(208,20)	(0,64)	(207,40)	(19,2)	(-26,1)	(252,2)	(35,2)	(36,1)	(-88,1)	
L1D -205>	(-3,4)	(206,40)	(0,44)	(205,10)	(124,1)	(204,17)	(20,2)	(37,2)	(38,2)	(8,16)	(-142,1)	(298,1)	(29,1)	(30,1)	(369,1)	(19,1)	
L1D -204>	(204,67)	(184,4)	(-2,54)	(-28,2)	(232,2)	(-8,2)	(108,3)	(203,14)	(0,105)	(205,18)	(332,2)	(88,6)	(116,3)	(8,1)	(-72,2)	(-120,3)	
L1D -203>	(370,1)	(202,16)	(372,3)	(203,10)	(0,59)	(204,36)	(40,1)	(41,1)	(1,3)	(-33,1)	(227,1)	(8,2)	(15,1)	(16,1)	(-251,1)	(80,1)	
L1D -202>	(-2,15)	(53,1)	(0,69)	(8,21)	(202,11)	(203,36)	(201,17)	(204,13)	(41,1)	(42,1)	(1,1)	(2,55)	(22,1)	(44,1)	(-27,1)	(17,2)	
L1D -201>	(102,1)	(200,26)	(201,8)	(0,47)	(202,36)	(-28,1)	(72,2)	(373,1)	(-14,1)	(24,1)	(137,1)	(123,1)	(69,1)	(1,1)	(53,1)	(54,1)	
L1D -200>	(248,3)	(201,10)	(-2,44)	(28,15)	(36,3)	(240,3)	(199,14)	(0,110)	(-36,11)	(68,1)	(172,3)	(72,6)	(200,62)	(4,5)	(2,2)	(24,4)	
L1D -199>	(56,1)	(242,1)	(199,9)	(0,61)	(200,36)	(198,24)	(44,1)	(-126,1)	(301,1)	(31,1)	(32,1)	(1,2)	(39,1)	(40,1)	(201,2)	(-27,1)	
L1D -198>	(198,54)	(0,95)	(207,2)	(200,4)	(-27,1)	(199,10)	(197,5)	(143,1)	(2,20)	(-162,1)	(1,1)	(117,1)	(315,1)	(-2,6)	(338,4)	(189,1)	
L1D -197>	(198,39)	(196,16)	(197,10)	(0,45)	(46,1)	(105,1)	(-30,1)	(42,1)	(47,1)	(48,1)	(303,1)	(-10,5)	(2,2)	(139,1)	(140,1)	(174,1)	
L1D -196>	(0,126)	(-2,42)	(194,4)	(124,3)	(136,4)	(236,3)	(-156,6)	(12,4)	(152,3)	(196,60)	(-48,4)	(-96,5)	(197,12)	(-180,3)	(324,1)	(416,2)	
L1D -195>	(260,29)	(247,48)	(-104,30)	(208,28)	(-91,17)	(78,23)	(0,123)	(117,43)	(13,41)	(-13,26)	(143,38)	(196,1)	(-169,16)	(130,28)	(195,94)	(39,55)	
L1D -194>	(324,1)	(-2,22)	(195,35)	(12,2)	(0,67)	(2,59)	(-10,19)	(194,19)	(193,19)	(-31,1)	(-180,1)	(352,1)	(196,8)	(10,3)	(1,6)	(291,1)	
L1D -193>	(59,1)	(193,9)	(-174,1)	(333,1)	(105,1)	(0,51)	(194,38)	(192,13)	(309,1)	(268,2)	(7,1)	(195,1)	(4,1)	(25,1)	(26,1)	(81,1)	
L1D -192>	(40,2)	(304,2)	(192,48)	(0,75)	(-2,35)	(44,4)	(-68,3)	(8,4)	(193,14)	(-148,2)	(191,11)	(-88,1)	(208,2)	(188,5)	(232,2)	(256,1)	
L1D -191>	(192,42)	(190,21)	(191,7)	(0,52)	(60,1)	(84,2)	(3,1)	(1,3)	(33,1)	(-17,1)	(10,1)	(11,1)	(189,1)	(83,1)	(120,1)	(121,1)	
L1D -190>	(191,35)	(272,2)	(88,2)	(8,11)	(2,34)	(0,68)	(-2,20)	(190,17)	(189,21)	(-252,1)	(31,1)	(50,1)	(280,1)	(192,10)	(96,1)	(-63,1)	
L1D -189>	(189,34)	(190,8)	(-117,2)	(-18,2)	(0,76)	(324,1)	(261,1)	(8,3)	(99,1)	(188,5)	(225,1)	(18,1)	(-9,2)	(9,3)	(136,1)	(137,1)	
L1D -188>	(56,4)	(172,16)	(-44,2)	(164,2)	(4,2)	(60,2)	(40,1)	(2,5)	(72,2)	(189,7)	(104,3)	(-2,25)	(0,83)	(188,42)	(187,7)	(220,2)	
L1D -187>	(188,38)	(64,1)	(-8,42)	(187,7)	(1,2)	(108,1)	(33,1)	(186,21)	(-10,1)	(0,56)	(189,1)	(36,1)	(278,1)	(75,1)	(399,1)	(191,1)	
L1D -186>	(2,65)	(188,5)	(187,38)	(0,71)	(4,1)	(186,11)	(-175,1)	(-61,1)	(111,1)	(112,1)	(-20,1)	(185,21)	(-2,12)	(316,2)	(89,1)	(172,2)	
L1D -185>	(186,36)	(184,29)	(140,1)	(-3,1)	(39,19)	(117,2)	(185,17)	(-247,1)	(340,1)	(0,52)	(37,1)	(38,1)	(-65,9)	(130,3)	(273,1)	(-8,1)	
L1D -184>	(-2,33)	(0,77)	(-104,2)	(40,3)	(8,3)	(128,2)	(2,8)	(-10,3)	(276,1)	(183,11)	(184,49)	(186,1)	(24,2)	(92,2)	(185,12)	(12,5)	
L1D -183>	(137,3)	(125,2)	(183,13)	(184,39)	(142,1)	(114,1)	(182,26)	(-18,1)	(0,51)	(36,1)	(4,3)	(1,3)	(372,2)	(185,1)	(147,1)	(38,1)	
L1D -182>	(195,32)	(182,72)	(181,10)	(143,1)	(2,21)	(247,20)	(-104,18)	(-156,28)	(26,28)	(312,23)	(78,24)	(0,116)	(-52,34)	(65,41)	(-39,13)	(130,23)	
L1D -181>	(66,1)	(180,27)	(182,43)	(0,59)	(353,1)	(63,2)	(64,1)	(181,13)	(-159,1)	(318,1)	(287,1)	(71,1)	(411,1)	(27,1)	(179,2)	(1,3)	
L1D -180>	(0,92)	(180,53)	(-9,4)	(162,3)	(-28,2)	(-2,19)	(99,2)	(179,6)	(2,2)	(181,9)	(124,2)	(351,2)	(92,1)	(171,1)	(20,1)	(156,5)	
L1D -179>	(179,14)	(180,43)	(0,65)	(1,4)	(69,1)	(117,1)	(178,16)	(66,1)	(67,1)	(8,29)	(322,1)	(9,3)	(45,2)	(46,1)	(-2,1)	(53,1)	
L1D -178>	(0,77)	(179,37)	(177,22)	(4,1)	(2,53)	(208,2)	(178,18)	(347,1)	(-44,1)	(1,7)	(357,1)	(-65,2)	(196,1)	(176,1)	(-2,17)	(61,1)	
L1D -177>	(178,35)	(4,2)	(180,1)	(0,57)	(176,25)	(177,5)	(358,1)	(41,1)	(-35,1)	(48,2)	(9,1)	(10,1)	(67,1)	(68,1)	(-143,1)	(179,1)	
L1D -176>	(260,2)	(-4,1)	(-172,1)	(0,97)	(176,47)	(-28,2)	(152,1)	(-224,3)	(96,3)	(2,5)	(252,1)	(177,8)	(-2,34)	(175,10)	(52,2)	(60,2)	
L1D -175>	(177,1)	(174,23)	(175,13)	(360,1)	(0,66)	(176,35)	(-36,2)	(79,2)	(80,1)	(62,1)	(2,1)	(126,1)	(28,1)	(20,1)	(50,1)	(-261,1)	
L1D -174>	(0,82)	(-2,2)	(173,24)	(-24,1)	(2,51)	(-10,1)	(-8,49)	(174,27)	(175,36)	(366,1)	(119,1)	(-23,1)	(45,1)	(92,2)	(-32,2)	(24,2)	
L1D -173>	(1,10)	(71,1)	(172,20)	(173,9)	(0,53)	(174,45)	(381,1)	(-181,1)	(122,1)	(52,1)	(10,1)	(11,1)	(85,2)	(86,2)	(-162,1)	(45,1)	
L1D -172>	(-2,40)	(0,85)	(-48,3)	(172,43)	(170,4)	(220,2)	(92,2)	(76,1)	(173,10)	(171,6)	(-76,1)	(168,1)	(-8,1)	(48,1)	(56,2)	(2,2)	
L1D -171>	(-9,4)	(171,26)	(162,3)	(172,8)	(170,4)	(27,1)	(0,66)	(-90,2)	(180,2)	(153,2)	(81,1)	(90,2)	(-10,2)	(144,2)	(-18,3)	(4,1)	
L1D -170>	(73,1)	(280,1)	(-6,2)	(5,2)	(132,1)	(2,68)	(0,84)	(170,21)	(171,38)	(391,1)	(169,24)	(172,16)	(104,1)	(360,1)	(-2,27)	(386,1)	
L1D -169>	(78,13)	(0,84)	(168,10)	(-52,28)	(169,46)	(-91,25)	(170,16)	(225,1)	(130,24)	(52,14)	(234,34)	(26,15)	(260,22)	(364,5)	(286,20)	(13,29)	
L1D -168>	(0,75)	(168,52)	(-40,2)	(60,3)	(169,11)	(140,3)	(200,1)	(167,10)	(-2,33)	(8,1)	(2,10)	(-28,4)	(166,1)	(32,3)	(4,4)	(232,2)	
L1D -167>	(360,1)	(-5,1)	(166,26)	(133,1)	(167,11)	(402,1)	(-69,1)	(50,1)	(0,63)	(97,1)	(98,2)	(95,1)	(168,42)	(-23,1)	(57,2)	(162,1)	
L1D -166>	(168,20)	(2,44)	(8,34)	(-2,24)	(165,26)	(96,2)	(0,83)	(88,1)	(166,18)	(167,39)	(404,1)	(-183,1)	(18,1)	(98,2)	(99,3)	(-165,1)	
L1D -165>	(166,46)	(150,1)	(164,26)	(165,15)	(0,57)	(406,1)	(19,2)	(20,3)	(334,1)	(-1,1)	(13,2)	(14,1)	(-234,1)	(1,5)	(81,1)	(440,1)	
L1D -164>	(76,2)	(164,38)	(-2,32)	(0,72)	(166,4)	(165,14)	(-32,3)	(68,3)	(124,2)	(163,7)	(300,2)	(156,2)	(-60,1)	(108,1)	(172,1)	(44,4)	
L1D -163>	(152,1)	(162,32)	(12,1)	(163,16)	(1,1)	(129,1)	(21,2)	(22,3)	(135,1)	(18,1)	(19,1)	(164,37)	(0,71)	(4,1)	(82,2)	(28,1)	
L1D -162>	(351,2)	(90,3)	(164,2)	(315,2)	(-90,2)	(162,38)	(2,9)	(-27,3)	(0,106)	(-2,7)	(117,2)	(163,11)	(-9,2)	(161,5)	(-108,1)	(36,5)	
L1D -161>	(1,1)	(13,2)	(160,33)	(2,1)	(3,1)	(-10,2)	(-8,53)	(161,17)	(420,1)	(-73,1)	(134,1)	(0,60)	(98,2)	(19,1)	(162,44)	(5,1)	
L1D -160>	(161,16)	(160,61)	(0,126)	(2,10)	(-60,2)	(200,7)	(-24,3)	(-252,3)	(159,12)	(464,3)	(400,1)	(156,4)	(136,1)	(-2,36)	(192,2)	(28,4)	
L1D -159>	(157,3)	(80,1)	(211,1)	(158,29)	(16,2)	(17,1)	(0,65)	(159,20)	(104,2)	(-143,2)	(-39,2)	(160,42)	(-74,1)	(25,1)	(26,3)	(56,2)	
L1D -158>	(-10,48)	(2,76)	(81,1)	(158,13)	(157,28)	(-2,15)	(160,9)	(6,1)	(7,2)	(0,100)	(159,36)	(136,1)	(80,1)	(-32,1)	(108,1)	(-28,1)	
L1D -157>	(2,1)	(156,32)	(7,2)	(8,1)	(157,19)	(430,1)	(158,41)	(0,68)	(27,2)	(-261,1)	(260,2)	(13,1)	(68,1)	(92,2)	(453,1)	(37,2)	
L1D -156>	(0,113)	(136,1)	(-117,8)	(13,10)	(-2,26)	(2,4)	(156,64)	(143,23)	(157,13)	(52,37)	(155,12)	(-260,4)	(-221,13)	(234,9)	(117,20)	(78,12)	
L1D -155>	(19,1)	(154,26)	(136,1)	(9,4)	(10,6)	(155,12)	(437,1)	(-76,1)	(138,1)	(156,41)	(-33,1)	(28,1)	(106,1)	(107,1)	(0,73)	(1,6)	
L1D -154>	(2,53)	(156,8)	(108,1)	(155,41)	(153,33)	(-11,1)	(17,1)	(0,98)	(138,1)	(-2,15)	(154,16)	(1,8)	(104,1)	(141,1)	(-225,1)	(-315,1)	
L1D -153>	(0,84)	(-162,2)	(162,2)	(144,3)	(154,10)	(152,7)	(9,2)	(153,32)	(72,3)	(8,6)	(4,1)	(-9,6)	(27,1)	(81,1)	(252,1)	(-126,1)	
L1D -152>	(12,1)	(36,3)	(232,1)	(0,90)	(-240,1)	(-2,33)	(-60,1)	(153,20)	(152,44)	(236,1)	(100,1)	(-12,3)	(92,2)	(-88,1)	(76,3)	(151,10)	
L1D -151>	(152,43)	(150,30)	(151,18)	(90,1)	(0,57)	(1,6)	(-186,1)	(-78,1)	(148,1)	(149,2)	(60,2)	(-3,1)	(6,1)	(7,1)	(29,1)	(30,1)	
L1D -150>	(-2,23)	(2,65)	(144,3)	(0,99)	(148,2)	(149,30)	(348,1)	(1,4)	(150,17)	(151,38)	(-32,2)	(228,1)	(62,1)	(7,2)	(-18,1)	(30,1)	
L1D -149>	(33,1)	(0,65)	(148,37)	(141,1)	(149,14)	(18,2)	(19,1)	(150,36)	(63,1)	(9,2)	(10,2)	(1,4)	(3,1)	(31,1)	(32,1)	(75,1)	
L1D -148>	(168,3)	(204,4)	(148,49)	(0,90)	(2,8)	(124,4)	(149,4)	(146,3)	(32,1)	(147,16)	(-2,38)	(-224,1)	(1,1)	(308,2)	(180,2)	(164,1)	
L1D -147>	(2,2)	(146,39)	(150,1)	(147,13)	(148,47)	(-189,1)	(63,2)	(67,1)	(17,2)	(18,4)	(-19,1)	(0,75)	(59,2)	(149,4)	(16,2)	(1,7)	
L1D -146>	(2,62)	(147,39)	(-243,2)	(145,40)	(148,14)	(92,2)	(-2,24)	(-8,3)	(-10,16)	(143,4)	(146,22)	(112,1)	(0,97)	(445,1)	(-20,1)	(-112,1)	
L1D -145>	(144,37)	(0,64)	(145,16)	(-99,1)	(372,10)	(146,44)	(447,1)	(-190,1)	(-79,1)	(152,1)	(70,1)	(18,1)	(19,1)	(-10,27)	(-178,1)	(1,1)	
L1D -144>	(228,2)	(-220,1)	(135,2)	(9,1)	(-132,1)	(-2,13)	(0,86)	(144,48)	(48,1)	(2,6)	(-9,2)	(153,1)	(-90,1)	(-36,1)	(126,1)	(112,1)	
L1D -143>	(-195,16)	(-143,42)	(0,102)	(144,23)	(142,15)	(104,28)	(78,30)	(-20,1)	(169,31)	(-39,22)	(-130,11)	(-182,14)	(286,25)	(143,90)	(351,6)	(-78,28)	
L1D -142>	(-2,15)	(84,1)	(141,30)	(0,94)	(143,51)	(10,5)	(-364,1)	(144,14)	(-10,21)	(142,16)	(453,1)	(73,1)	(2,46)	(-8,3)	(-48,2)	(372,1)	
L1D -141>	(142,42)	(140,26)	(97,2)	(26,2)	(141,23)	(0,75)	(73,1)	(-193,1)	(154,1)	(39,1)	(40,1)	(-45,1)	(-20,1)	(139,2)	(68,1)	(98,3)	
L1D -140>	(68,3)	(0,106)	(140,50)	(141,18)	(-44,4)	(-2,34)	(2,6)	(168,5)	(8,13)	(264,2)	(304,2)	(348,1)	(28,1)	(284,2)	(139,16)	(92,3)	
L1D -139>	(140,40)	(102,1)	(139,17)	(35,1)	(36,1)	(-194,1)	(-82,1)	(138,39)	(76,1)	(42,2)	(43,2)	(0,73)	(-23,1)	(32,2)	(33,1)	(-51,1)	
L1D -138>	(-2,20)	(2,59)	(139,42)	(0,73)	(137,27)	(136,4)	(348,1)	(138,20)	(124,1)	(157,2)	(99,2)	(284,1)	(-60,1)	(140,10)	(33,1)	(122,1)	
L1D -137>	(138,42)	(1,3)	(136,37)	(108,1)	(37,1)	(137,25)	(0,64)	(-83,1)	(79,2)	(34,2)	(-80,1)	(-63,1)	(94,1)	(95,1)	(56,2)	(76,1)	
L1D -136>	(0,94)	(180,2)	(132,2)	(160,2)	(28,3)	(124,3)	(137,12)	(8,5)	(360,1)	(135,12)	(448,1)	(332,2)	(12,1)	(-2,43)	(136,49)	(256,1)	
L1D -135>	(0,106)	(135,36)	(136,14)	(108,1)	(134,8)	(9,3)	(-27,1)	(45,2)	(36,2)	(-189,3)	(-162,1)	(153,3)	(-8,6)	(225,1)	(-9,8)	(-18,6)	
L1D -134>	(2,44)	(132,3)	(135,46)	(1,7)	(0,87)	(169,2)	(-2,20)	(133,35)	(134,22)	(144,1)	(161,1)	(80,1)	(136,17)	(37,1)	(38,2)	(127,1)	
L1D -133>	(134,42)	(26,2)	(132,38)	(169,2)	(-39,11)	(78,2)	(-13,4)	(133,13)	(0,70)	(-78,2)	(48,3)	(49,2)	(83,1)	(38,1)	(39,7)	(104,3)	
L1D -132>	(132,42)	(0,92)	(-184,3)	(-2,28)	(133,17)	(-10,3)	(172,3)	(140,2)	(-92,11)	(-88,2)	(208,1)	(-192,1)	(131,19)	(-272,1)	(104,1)	(200,3)	
L1D -131>	(132,46)	(130,32)	(112,1)	(19,1)	(131,18)	(44,1)	(45,1)	(-156,1)	(0,89)	(-17,1)	(49,1)	(-48,1)	(65,2)	(-27,1)	(39,1)	(40,3)	
L1D -130>	(2,26)	(78,46)	(131,22)	(129,16)	(-2,9)	(-117,23)	(34,1)	(39,41)	(-208,21)	(130,49)	(0,117)	(182,20)	(-65,26)	(26,32)	(377,13)	(-130,16)	
L1D -129>	(130,45)	(128,40)	(10,4)	(64,2)	(9,2)	(-8,2)	(129,16)	(0,60)	(35,1)	(-28,1)	(-55,1)	(65,2)	(2,4)	(1,3)	(115,1)	(116,1)	
L1D -128>	(128,79)	(-2,54)	(-100,4)	(-40,4)	(52,4)	(0,115)	(-32,2)	(-72,4)	(80,4)	(127,20)	(129,23)	(104,1)	(-16,5)	(240,1)	(2,7)	(126,4)	
L1D -127>	(8,14)	(45,2)	(0,95)	(126,38)	(6,2)	(114,1)	(128,48)	(24,1)	(1,8)	(127,10)	(168,1)	(134,1)	(3,3)	(4,2)	(-2,1)	(124,2)	
L1D -126>	(-18,3)	(351,2)	(18,1)	(0,111)	(126,49)	(2,18)	(45,1)	(-45,4)	(125,6)	(144,1)	(234,1)	(-2,3)	(-9,3)	(36,1)	(127,11)	(99,2)	
L1D -125>	(0,77)	(124,51)	(63,2)	(8,2)	(106,1)	(-14,1)	(125,21)	(126,48)	(-201,1)	(53,1)	(-3,1)	(15,2)	(3,2)	(4,3)	(9,2)	(65,1)	
L1D -124>	(124,57)	(0,123)	(248,4)	(372,3)	(-2,46)	(2,7)	(72,3)	(125,21)	(52,2)	(68,3)	(-40,1)	(-112,1)	(92,1)	(104,4)	(123,17)	(8,3)	
L1D -123>	(0,91)	(122,39)	(-104,2)	(15,2)	(28,2)	(123,19)	(113,1)	(124,55)	(137,1)	(71,3)	(1,5)	(72,1)	(5,1)	(6,2)	(78,2)	(79,2)	
L1D -122>	(0,116)	(123,55)	(-8,6)	(104,7)	(2,69)	(1,6)	(124,13)	(121,35)	(206,1)	(101,2)	(122,29)	(173,1)	(-264,1)	(41,1)	(-2,19)	(138,1)	
L1D -121>	(120,35)	(55,1)	(12,1)	(13,1)	(0,84)	(121,19)	(74,1)	(122,43)	(-50,1)	(139,1)	(117,2)	(1,3)	(84,1)	(85,1)	(-315,1)	(8,3)	
L1D -120>	(0,115)	(416,3)	(-2,50)	(2,6)	(120,78)	(104,4)	(28,4)	(-20,2)	(200,3)	(172,3)	(118,5)	(-36,3)	(15,1)	(119,21)	(121,8)	(20,3)	
L1D -119>	(0,85)	(120,57)	(-10,6)	(12,1)	(118,32)	(-15,1)	(31,2)	(119,18)	(-93,1)	(175,1)	(54,1)	(-31,1)	(145,1)	(14,1)	(9,2)	(6,2)	
L1D -118>	(119,52)	(12,5)	(76,2)	(2,54)	(120,10)	(352,2)	(117,35)	(0,115)	(118,21)	(-160,2)	(1,6)	(-52,2)	(200,2)	(-2,21)	(13,1)	(70,2)	
L1D -117>	(0,111)	(156,12)	(118,6)	(116,6)	(117,71)	(78,13)	(-13,10)	(-143,7)	(65,10)	(15,1)	(39,11)	(-9,8)	(-52,15)	(52,9)	(325,10)	(-26,7)	
L1D -116>	(0,71)	(117,12)	(4,1)	(115,10)	(-2,28)	(2,4)	(56,1)	(88,1)	(276,1)	(256,1)	(116,39)	(-240,1)	(48,1)	(152,2)	(-8,3)	(20,3)	
L1D -115>	(116,48)	(114,55)	(8,1)	(115,25)	(-12,1)	(-21,1)	(15,1)	(0,97)	(-17,1)	(34,1)	(182,1)	(61,2)	(129,1)	(17,2)	(-1,1)	(345,1)	
L1D -114>	(115,62)	(8,29)	(113,27)	(-2,24)	(116,18)	(-124,2)	(104,2)	(17,3)	(172,1)	(0,116)	(2,65)	(35,1)	(112,6)	(-27,1)	(78,1)	(114,32)	
L1D -113>	(114,60)	(-69,2)	(14,2)	(21,1)	(112,34)	(0,100)	(-11,1)	(20,2)	(36,1)	(113,23)	(62,2)	(63,2)	(9,2)	(10,3)	(125,1)	(64,2)	
L1D -112>	(112,39)	(-24,2)	(0,66)	(22,1)	(8,1)	(111,10)	(228,3)	(-2,24)	(52,2)	(-116,1)	(352,1)	(72,1)	(-92,1)	(113,11)	(292,1)	(2,4)	
L1D -111>	(0,94)	(112,44)	(-15,1)	(16,1)	(395,1)	(110,44)	(25,1)	(-20,1)	(111,18)	(79,1)	(80,1)	(186,1)	(-1,2)	(92,1)	(56,1)	(65,3)	
L1D -110>	(0,116)	(111,49)	(2,87)	(1,2)	(22,1)	(440,1)	(416,1)	(109,51)	(72,3)	(-2,28)	(112,24)	(81,1)	(82,1)	(56,3)	(110,27)	(20,3)	
L1D -109>	(108,55)	(24,1)	(-171,1)	(30,1)	(31,1)	(0,91)	(40,1)	(109,23)	(-8,47)	(110,47)	(-52,1)	(58,1)	(59,1)	(66,1)	(-56,1)	(154,1)	
L1D -108>	(108,43)	(0,77)	(-2,10)	(29,1)	(52,1)	(2,2)	(207,1)	(107,8)	(109,6)	(135,1)	(-9,3)	(63,4)	(-48,2)	(200,1)	(99,1)	(-36,2)	
L1D -107>	(108,41)	(-8,14)	(19,2)	(107,25)	(0,107)	(106,59)	(-178,2)	(143,3)	(-13,1)	(83,2)	(84,2)	(-26,22)	(247,3)	(-351,1)	(63,1)	(-57,1)	
L1D -106>	(-10,19)	(0,110)	(108,13)	(105,45)	(29,1)	(-14,1)	(18,3)	(-22,1)	(107,51)	(42,1)	(2,55)	(248,2)	(91,2)	(106,33)	(1,8)	(92,2)	
L1D -105>	(104,47)	(0,94)	(105,26)	(92,2)	(106,50)	(13,2)	(70,3)	(14,1)	(-13,1)	(31,1)	(74,1)	(-1,1)	(1,5)	(2,3)	(82,1)	(83,2)	
L1D -104>	(104,44)	(0,83)	(-65,16)	(30,1)	(-117,19)	(39,11)	(-13,15)	(117,6)	(103,11)	(-26,12)	(65,15)	(-2,28)	(105,10)	(91,17)	(13,12)	(-312,9)	
L1D -103>	(0,104)	(104,60)	(31,1)	(21,1)	(22,1)	(28,1)	(102,55)	(103,26)	(-212,1)	(69,1)	(70,1)	(2,3)	(153,1)	(-14,1)	(41,1)	(42,1)	
L1D -102>	(103,27)	(0,68)	(2,34)	(101,23)	(-2,1)	(16,1)	(102,21)	(-8,1)	(45,0)	(93,0)	(94,0)	(-234,10)	(-328,1)	(1,2)	(-152,0)	(104,12)	
L1D -101>	(0,92)	(102,62)	(31,1)	(25,5)	(101,21)	(-16,1)	(100,48)	(-23,1)	(38,4)	(39,2)	(48,2)	(94,1)	(95,1)	(199,1)	(7,4)	(8,28)	
L1D -100>	(188,2)	(24,3)	(0,80)	(-2,31)	(4,2)	(44,3)	(148,2)	(100,41)	(2,7)	(33,1)	(99,16)	(116,4)	(48,1)	(101,12)	(-108,1)	(64,1)	
L1D -99>	(9,3)	(100,14)	(-90,2)	(117,2)	(99,46)	(0,104)	(-261,2)	(180,4)	(-36,3)	(98,11)	(-9,3)	(333,1)	(-117,7)	(-108,3)	(-63,4)	(-198,1)	
L1D -98>	(99,62)	(-80,2)	(35,2)	(2,63)	(97,61)	(-216,1)	(44,2)	(98,26)	(100,18)	(-2,28)	(0,113)	(203,1)	(-1,1)	(91,1)	(48,1)	(82,4)	
L1D -97>	(-97,2)	(-60,2)	(0,106)	(98,53)	(1,6)	(35,1)	(44,3)	(45,1)	(96,55)	(12,3)	(97,24)	(208,1)	(-19,1)	(53,1)	(54,1)	(165,1)	
L1D -96>	(95,21)	(97,23)	(98,6)	(72,2)	(20,2)	(94,5)	(8,3)	(96,61)	(304,2)	(164,2)	(0,120)	(-40,1)	(-2,37)	(-168,1)	(-132,2)	(2,9)	
L1D -95>	(94,59)	(0,114)	(4,5)	(96,56)	(-1,1)	(95,24)	(-7,1)	(23,3)	(30,3)	(31,2)	(17,4)	(18,3)	(21,2)	(1,8)	(36,2)	(37,2)	
L1D -94>	(38,1)	(93,32)	(95,31)	(2,44)	(28,2)	(0,71)	(64,1)	(49,1)	(7,1)	(96,15)	(94,16)	(-2,19)	(52,1)	(72,1)	(260,10)	(78,1)	
L1D -93>	(0,114)	(94,59)	(92,76)	(-10,14)	(1,6)	(93,21)	(2,3)	(44,1)	(211,1)	(11,3)	(-333,1)	(-45,1)	(-12,1)	(378,1)	(-1,3)	(171,1)	
L1D -92>	(-2,32)	(0,95)	(93,17)	(64,2)	(94,4)	(220,2)	(92,64)	(46,1)	(-52,3)	(-76,2)	(296,1)	(2,12)	(91,13)	(4,2)	(5,1)	(13,1)	
L1D -91>	(90,18)	(0,100)	(-156,26)	(117,20)	(91,46)	(51,1)	(273,10)	(-26,14)	(-104,16)	(169,32)	(351,12)	(312,9)	(-221,6)	(-65,20)	(-78,22)	(130,28)	
L1D -90>	(90,28)	(0,65)	(91,5)	(51,1)	(-9,1)	(89,6)	(-72,1)	(324,1)	(-18,1)	(2,5)	(108,2)	(82,1)	(18,2)	(92,3)	(-261,1)	(-2,1)	
L1D -89>	(90,49)	(0,100)	(88,72)	(1,1)	(-18,1)	(57,2)	(58,2)	(89,26)	(-88,1)	(217,1)	(105,1)	(-3,1)	(4,3)	(-47,1)	(-41,1)	(-13,1)	
L1D -88>	(2,4)	(0,108)	(-2,34)	(76,4)	(89,14)	(-100,1)	(8,12)	(-80,4)	(112,3)	(180,5)	(36,3)	(388,2)	(-28,2)	(87,21)	(88,65)	(-372,3)	
L1D -87>	(87,24)	(22,1)	(88,64)	(52,1)	(53,2)	(0,126)	(-19,1)	(86,64)	(-32,1)	(218,1)	(-106,1)	(-63,1)	(109,2)	(-4,1)	(-9,1)	(16,4)	
L1D -86>	(0,77)	(8,5)	(87,31)	(2,37)	(-124,1)	(-84,1)	(-2,16)	(85,29)	(1,1)	(90,1)	(41,1)	(63,1)	(4,2)	(86,14)	(64,1)	(88,12)	
L1D -85>	(77,1)	(86,29)	(84,32)	(-333,1)	(0,67)	(24,1)	(72,0)	(85,11)	(1,4)	(-64,0)	(115,0)	(83,2)	(3,1)	(-61,0)	(57,0)	(58,1)	
L1D -84>	(85,13)	(-2,21)	(0,64)	(4,3)	(136,2)	(48,1)	(196,2)	(84,26)	(32,1)	(116,0)	(-140,0)	(82,2)	(83,14)	(180,1)	(39,1)	(2,2)	
L1D -83>	(84,28)	(39,1)	(-10,1)	(0,90)	(82,46)	(28,1)	(83,16)	(1,1)	(-8,24)	(126,1)	(33,1)	(34,1)	(8,1)	(12,1)	(13,1)	(10,1)	
L1D -82>	(0,66)	(84,7)	(83,33)	(81,31)	(38,1)	(80,1)	(2,29)	(72,1)	(11,1)	(-2,9)	(1,5)	(82,21)	(40,0)	(3,0)	(6,1)	(52,2)	
L1D -81>	(0,96)	(-99,6)	(82,9)	(80,11)	(90,2)	(81,36)	(10,1)	(-18,7)	(-108,1)	(9,3)	(-9,5)	(-27,5)	(-54,2)	(36,1)	(-90,1)	(377,2)	
L1D -80>	(196,2)	(168,2)	(81,19)	(80,47)	(79,21)	(0,106)	(68,2)	(152,2)	(-80,3)	(-244,1)	(-2,28)	(40,1)	(88,1)	(2,5)	(16,3)	(-24,3)	
L1D -79>	(79,16)	(82,1)	(80,33)	(59,1)	(42,1)	(78,37)	(0,70)	(75,0)	(113,0)	(1,18)	(223,0)	(-61,0)	(7,1)	(-68,0)	(20,1)	(-51,0)	
L1D -78>	(60,1)	(0,25)	(79,4)	(77,5)	(78,14)	(-13,5)	(-26,6)	(4,5)	(-7,69)	(117,3)	(65,11)	(-91,6)	(-130,5)	(156,5)	(-117,4)	(-156,3)	
L1D -77>	(0,64)	(77,16)	(78,31)	(76,41)	(28,1)	(4,2)	(9,4)	(79,0)	(11,1)	(-8,9)	(229,0)	(7,2)	(8,3)	(138,0)	(35,1)	(15,2)	
L1D -76>	(76,42)	(0,74)	(75,16)	(77,14)	(244,2)	(-2,22)	(336,1)	(-70,1)	(152,3)	(-120,1)	(-108,1)	(-92,1)	(204,2)	(52,2)	(2,5)	(78,2)	
L1D -75>	(76,27)	(74,41)	(0,64)	(8,20)	(3,1)	(19,1)	(-9,0)	(75,14)	(232,0)	(-5,0)	(-24,1)	(-7,0)	(-8,0)	(9,4)	(92,0)	(103,0)	
L1D -74>	(75,32)	(0,90)	(1,5)	(2,39)	(-2,9)	(73,45)	(-30,1)	(65,1)	(66,1)	(-414,1)	(74,22)	(17,1)	(18,1)	(30,1)	(70,1)	(71,1)	
L1D -73>	(0,65)	(-48,1)	(74,28)	(72,37)	(63,1)	(73,21)	(27,1)	(42,2)	(28,1)	(11,2)	(38,1)	(39,1)	(24,1)	(110,0)	(-2,0)	(2,2)	
L1D -72>	(-297,1)	(72,31)	(-2,9)	(0,77)	(279,1)	(-36,2)	(-9,4)	(352,1)	(-18,2)	(2,1)	(252,1)	(27,2)	(388,1)	(73,4)	(-27,1)	(71,8)	
L1D -71>	(0,74)	(72,36)	(3,1)	(38,1)	(58,1)	(70,40)	(59,1)	(1,1)	(-72,1)	(34,1)	(43,1)	(30,1)	(71,16)	(-232,0)	(-8,1)	(5,2)	
L1D -70>	(-2,19)	(-8,10)	(1,4)	(72,9)	(71,40)	(5,3)	(6,2)	(0,110)	(8,1)	(2,49)	(69,45)	(442,1)	(70,32)	(91,1)	(-10,1)	(13,5)	
L1D -69>	(70,37)	(7,2)	(0,82)	(39,1)	(45,4)	(69,22)	(8,4)	(68,46)	(1,6)	(2,1)	(-340,1)	(-8,1)	(9,1)	(6,1)	(18,3)	(48,1)	
L1D -68>	(66,4)	(0,103)	(-2,29)	(136,3)	(41,1)	(192,1)	(184,4)	(112,2)	(67,21)	(50,2)	(28,1)	(-56,5)	(-60,2)	(-48,3)	(-188,1)	(68,56)	
L1D -67>	(0,127)	(68,45)	(-10,20)	(15,1)	(9,4)	(10,3)	(6,2)	(24,2)	(25,1)	(66,57)	(7,3)	(67,23)	(-202,1)	(11,2)	(1,3)	(77,1)	
L1D -66>	(-12,126)	(1,1)	(50,1)	(2,12)	(67,3)	(65,13)	(51,1)	(34,1)	(0,41)	(-2,1)	(313,2)	(66,5)	(-252,1)	(16,1)	(68,2)	(180,1)	
L1D -65>	(66,17)	(-26,14)	(247,17)	(117,23)	(46,1)	(39,20)	(0,76)	(64,15)	(286,11)	(-273,9)	(13,11)	(130,12)	(26,35)	(65,46)	(-182,8)	(-156,8)	
L1D -64>	(236,1)	(2,2)	(-2,21)	(65,13)	(0,64)	(-32,1)	(4,1)	(-35,0)	(60,1)	(63,15)	(-300,0)	(8,2)	(44,3)	(64,30)	(20,1)	(36,0)	
L1D -63>	(297,1)	(315,1)	(0,97)	(62,15)	(-27,2)	(63,41)	(-99,1)	(9,1)	(-90,1)	(-18,2)	(12,1)	(64,14)	(18,4)	(45,4)	(-189,2)	(-9,4)	
L1D -62>	(63,42)	(0,102)	(61,62)	(2,42)	(64,13)	(62,29)	(8,14)	(4,3)	(56,2)	(-124,1)	(1,3)	(-2,12)	(3,2)	(44,1)	(18,2)	(15,2)	
L1D -61>	(62,34)	(1,5)	(15,2)	(16,3)	(75,1)	(12,1)	(0,104)	(60,59)	(-249,1)	(63,2)	(10,2)	(-61,1)	(61,19)	(9,3)	(-11,8)	(48,1)	
L1D -60>	(0,101)	(59,24)	(116,4)	(61,4)	(-80,2)	(20,1)	(-36,2)	(32,1)	(12,3)	(60,56)	(-68,1)	(232,1)	(2,6)	(-2,34)	(408,2)	(356,1)	
L1D -59>	(60,22)	(58,36)	(0,80)	(4,2)	(3,2)	(59,14)	(61,2)	(18,3)	(1,4)	(2,5)	(44,1)	(26,1)	(32,1)	(17,1)	(52,1)	(14,1)	
L1D -58>	(-7,64)	(4,9)	(19,1)	(0,7)	(12,1)	(57,4)	(2,2)	(58,2)	(60,0)	(59,3)	(56,1)	(22,0)	(344,0)	(18,1)	(-2,1)	(16,0)	
L1D -57>	(58,40)	(57,22)	(59,7)	(3,3)	(0,82)	(89,1)	(56,59)	(-3,1)	(4,6)	(5,5)	(10,2)	(-8,29)	(33,1)	(19,2)	(1,9)	(38,1)	
L1D -56>	(-2,41)	(0,120)	(56,72)	(57,21)	(112,1)	(55,29)	(54,2)	(300,2)	(58,2)	(2,10)	(124,2)	(-120,2)	(7,2)	(-7,22)	(-36,3)	(-28,3)	
L1D -55>	(-7,36)	(56,44)	(54,67)	(0,98)	(-8,2)	(16,5)	(1,4)	(2,3)	(9,1)	(-1,2)	(13,5)	(10,1)	(286,3)	(-130,2)	(55,23)	(41,2)	
L1D -54>	(0,85)	(-9,2)	(55,8)	(56,5)	(306,1)	(54,25)	(-234,1)	(45,2)	(-10,4)	(6,2)	(2,13)	(81,1)	(-2,3)	(53,16)	(-232,1)	(-7,8)	
L1D -53>	(0,99)	(1,9)	(54,53)	(52,56)	(53,22)	(13,2)	(16,4)	(18,3)	(19,3)	(-41,1)	(4,1)	(-6,1)	(-65,1)	(31,2)	(12,3)	(2,6)	
L1D -52>	(0,102)	(-78,11)	(-130,15)	(195,6)	(51,11)	(-96,1)	(-234,5)	(234,2)	(26,17)	(-2,34)	(-52,13)	(39,15)	(91,15)	(182,7)	(52,61)	(65,16)	
L1D -51>	(52,48)	(50,70)	(19,4)	(51,20)	(0,104)	(14,3)	(23,1)	(12,4)	(49,1)	(7,3)	(20,2)	(48,1)	(24,2)	(29,3)	(30,1)	(4,3)	
L1D -50>	(51,23)	(0,66)	(49,38)	(2,25)	(52,7)	(6,4)	(-2,5)	(154,1)	(10,1)	(-120,0)	(35,0)	(23,1)	(50,15)	(84,0)	(27,1)	(20,1)	
L1D -49>	(25,5)	(8,34)	(49,23)	(48,72)	(0,104)	(22,1)	(1,9)	(9,5)	(15,1)	(50,43)	(-11,1)	(28,6)	(2,5)	(279,1)	(3,3)	(-17,1)	
L1D -48>	(0,34)	(-2,6)	(316,1)	(47,8)	(7,79)	(2,4)	(220,2)	(72,10)	(-328,1)	(-124,1)	(213,1)	(-236,1)	(-96,1)	(85,1)	(48,21)	(49,5)	
L1D -47>	(0,64)	(48,28)	(46,40)	(8,6)	(29,1)	(3,1)	(7,1)	(47,12)	(11,1)	(22,2)	(35,1)	(5,0)	(41,1)	(42,0)	(20,1)	(34,0)	
L1D -46>	(-12,90)	(0,34)	(-2,3)	(64,1)	(18,1)	(1,2)	(2,3)	(46,3)	(11,1)	(48,2)	(45,14)	(-61,1)	(12,1)	(-104,1)	(3,1)	(47,6)	
L1D -45>	(-72,1)	(0,93)	(46,5)	(45,15)	(11,24)	(16,1)	(48,1)	(44,10)	(47,2)	(3,1)	(43,1)	(9,2)	(-162,1)	(306,1)	(-18,3)	(-8,1)	
L1D -44>	(-8,7)	(46,2)	(-264,2)	(44,46)	(0,91)	(43,34)	(2,6)	(42,7)	(94,1)	(45,15)	(-32,1)	(16,3)	(-2,26)	(-72,3)	(-12,26)	(52,2)	
L1D -43>	(44,27)	(43,15)	(1,7)	(42,46)	(-12,23)	(22,3)	(45,5)	(2,4)	(224,1)	(0,72)	(4,3)	(215,1)	(18,2)	(19,1)	(35,1)	(3,4)	
L1D -42>	(43,37)	(0,108)	(41,65)	(8,2)	(44,11)	(-2,14)	(13,2)	(42,32)	(-12,13)	(11,3)	(-180,1)	(31,3)	(2,36)	(27,4)	(376,1)	(6,4)	
L1D -41>	(40,50)	(0,78)	(42,31)	(41,21)	(5,5)	(2,3)	(-10,5)	(1,11)	(-12,5)	(8,3)	(9,2)	(13,1)	(19,1)	(85,1)	(-9,1)	(21,2)	
L1D -40>	(40,48)	(38,2)	(0,96)	(-2,24)	(-140,3)	(39,32)	(136,1)	(200,1)	(34,1)	(92,6)	(2,7)	(-164,2)	(-176,1)	(-1,17)	(52,2)	(41,18)	
L1D -39>	(-7,2)	(83,1)	(-65,22)	(260,5)	(40,18)	(0,72)	(38,24)	(1,4)	(-26,12)	(-78,10)	(143,10)	(13,23)	(-143,5)	(5,15)	(-117,6)	(39,47)	
L1D -38>	(-7,112)	(0,19)	(69,1)	(4,5)	(6,2)	(39,8)	(13,1)	(38,8)	(1,1)	(-1,14)	(37,10)	(5,1)	(2,8)	(-8,1)	(41,1)	(-2,2)	
L1D -37>	(18,4)	(36,71)	(11,5)	(12,4)	(38,43)	(37,24)	(0,118)	(39,3)	(20,1)	(1,23)	(3,11)	(4,9)	(5,5)	(28,2)	(29,2)	(23,1)	
L1D -36>	(-2,16)	(108,5)	(0,123)	(35,26)	(37,12)	(8,10)	(34,3)	(297,1)	(36,75)	(-9,5)	(27,2)	(261,2)	(1,4)	(92,2)	(2,3)	(18,4)	
L1D -35>	(34,50)	(35,17)	(10,20)	(98,1)	(36,32)	(0,73)	(17,1)	(12,3)	(14,3)	(5,38)	(-22,1)	(4,2)	(18,2)	(2,2)	(11,1)	(1,7)	
L1D -34>	(33,72)	(2,30)	(14,94)	(0,99)	(34,21)	(1,8)	(17,8)	(71,2)	(99,1)	(36,5)	(23,3)	(35,35)	(-2,7)	(25,1)	(26,2)	(7,5)	
L1D -33>	(11,2)	(32,54)	(0,69)	(34,24)	(8,2)	(1,12)	(7,1)	(20,2)	(2,1)	(33,17)	(26,1)	(9,2)	(10,2)	(12,3)	(18,1)	(25,1)	
L1D -32>	(31,41)	(144,1)	(-2,25)	(33,24)	(32,54)	(0,126)	(16,9)	(12,5)	(30,4)	(24,9)	(2,11)	(-64,2)	(68,4)	(72,3)	(34,4)	(168,2)	
L1D -31>	(-8,6)	(30,40)	(31,15)	(13,3)	(32,22)	(1,6)	(5,3)	(16,3)	(0,69)	(7,2)	(102,1)	(29,3)	(14,3)	(6,3)	(15,4)	(-24,1)	
L1D -30>	(29,51)	(-2,5)	(4,4)	(0,86)	(2,28)	(31,27)	(3,5)	(20,3)	(30,30)	(5,6)	(-19,2)	(15,7)	(32,11)	(1,9)	(14,5)	(105,1)	
L1D -29>	(28,93)	(15,6)	(0,123)	(29,28)	(30,53)	(4,9)	(71,1)	(2,13)	(5,4)	(1,10)	(17,3)	(-29,1)	(14,9)	(16,7)	(19,4)	(20,3)	
L1D -28>	(4,7)	(0,126)	(14,5)	(28,51)	(1,8)	(-2,20)	(-8,4)	(29,22)	(-172,3)	(30,2)	(-300,2)	(26,5)	(27,49)	(56,1)	(2,7)	(3,3)	
L1D -27>	(45,3)	(13,2)	(0,82)	(26,26)	(28,11)	(-9,6)	(18,2)	(1,4)	(73,1)	(27,48)	(4,1)	(-72,1)	(9,5)	(63,2)	(-27,9)	(14,3)	
L1D -26>	(52,7)	(13,6)	(-13,4)	(-340,1)	(-12,94)	(-169,3)	(2,6)	(130,2)	(3,1)	(0,36)	(27,7)	(25,14)	(117,3)	(26,9)	(65,3)	(39,8)	
L1D -25>	(24,75)	(1,17)	(26,43)	(0,119)	(10,7)	(2,6)	(9,1)	(6,5)	(8,5)	(25,21)	(-1,3)	(12,6)	(3,17)	(4,4)	(5,11)	(18,2)	
L1D -24>	(23,35)	(24,34)	(2,10)	(0,92)	(-256,4)	(-2,16)	(12,12)	(1,6)	(25,22)	(-76,1)	(22,4)	(-42,2)	(16,2)	(4,7)	(32,2)	(-16,5)	
L1D -23>	(22,100)	(-1,3)	(6,5)	(23,32)	(24,47)	(0,111)	(11,10)	(-43,10)	(1,23)	(3,33)	(9,1)	(8,10)	(2,13)	(10,3)	(25,4)	(12,9)	
L1D -22>	(4,79)	(-136,1)	(-1,3)	(-3,79)	(21,16)	(0,31)	(23,8)	(16,36)	(-56,2)	(9,1)	(2,9)	(1,3)	(-2,2)	(20,2)	(22,9)	(-44,2)	
L1D -21>	(20,62)	(23,1)	(22,26)	(10,8)	(11,4)	(2,8)	(5,5)	(1,9)	(3,5)	(21,17)	(8,1)	(9,5)	(4,2)	(0,66)	(12,3)	(19,6)	
L1D -20>	(19,32)	(10,10)	(-2,13)	(-364,4)	(17,3)	(-336,1)	(0,74)	(20,42)	(21,13)	(-18,5)	(2,11)	(5,2)	(-58,122)	(40,3)	(-46,98)	(1,7)	
L1D -19>	(18,73)	(0,114)	(8,4)	(1,19)	(20,37)	(6,9)	(25,32)	(9,10)	(19,28)	(23,3)	(3,15)	(10,8)	(11,13)	(2,1)	(5,107)	(7,6)	
L1D -18>	(17,28)	(18,52)	(38,66)	(0,102)	(-7,26)	(-81,2)	(20,6)	(19,19)	(1,6)	(-54,1)	(-9,8)	(4,9)	(369,1)	(9,14)	(2,6)	(-18,1)	
L1D -17>	(3,69)	(0,66)	(23,16)	(7,2)	(16,45)	(18,20)	(-2,5)	(17,16)	(6,2)	(1,10)	(11,6)	(10,1)	(8,7)	(2,6)	(9,4)	(4,6)	
L1D -16>	(2,8)	(0,84)	(16,33)	(8,7)	(-136,1)	(18,4)	(15,45)	(19,1)	(7,6)	(-2,10)	(1,9)	(14,4)	(17,20)	(3,4)	(4,3)	(5,4)	
L1D -15>	(-1,0)	(7,83)	(10,11)	(8,1)	(2,1)	(9,0)	(55,0)	(16,5)	(1,1)	(17,0)	(0,14)	(15,5)	(14,9)	(4,1)	(5,1)	(3,2)	
L1D -14>	(25,25)	(-168,1)	(4,3)	(0,14)	(12,1)	(3,1)	(15,3)	(2,14)	(16,1)	(14,1)	(13,6)	(22,1)	(-7,117)	(-1,1)	(1,2)	(7,2)	
L1D -13>	(15,42)	(5,81)	(13,1)	(117,1)	(12,0)	(6,0)	(23,0)	(2,0)	(7,8)	(3,0)	(0,2)	(4,0)	(182,0)	(234,0)	(143,0)	(104,0)	
L1D -12>	(7,62)	(4,19)	(3,5)	(6,7)	(-2,6)	(-7,98)	(-1,61)	(13,10)	(12,19)	(0,37)	(5,5)	(1,4)	(11,23)	(25,2)	(-52,1)	(2,4)	
L1D -11>	(11,7)	(4,1)	(19,15)	(0,7)	(-12,0)	(7,1)	(6,0)	(23,0)	(12,1)	(10,3)	(3,2)	(1,1)	(-7,67)	(13,0)	(24,0)	(5,1)	
L1D -10>	(-3,1)	(11,6)	(8,2)	(-6,3)	(-4,98)	(0,16)	(2,9)	(5,2)	(33,1)	(3,2)	(10,15)	(20,4)	(1,5)	(6,2)	(9,14)	(-7,12)	
L1D -9>	(10,21)	(0,116)	(8,54)	(-27,7)	(4,13)	(-1,1)	(-18,5)	(-7,69)	(18,7)	(-3,36)	(11,5)	(1,11)	(9,62)	(6,6)	(-5,40)	(-9,14)	
L1D -8>	(-4,114)	(24,1)	(96,1)	(-11,2)	(220,1)	(204,1)	(5,0)	(-8,0)	(2,0)	(9,1)	(-1,0)	(307,0)	(8,2)	(7,0)	(0,1)	(-31,0)	
L1D -7>	(4,0)	(19,75)	(11,68)	(-4,2)	(0,2)	(8,0)	(6,0)	(10,0)	(3,1)	(2,0)	(32,0)	(5,0)	(1,0)	(-161,0)	(177,0)	(7,0)	
L1D -6>	(428,1)	(0,88)	(3,8)	(9,3)	(5,30)	(2,12)	(-5,7)	(-8,17)	(4,8)	(-12,15)	(-7,58)	(7,22)	(42,4)	(1,18)	(11,7)	(6,19)	
L1D -5>	(6,26)	(10,35)	(-1,30)	(47,5)	(5,35)	(0,94)	(8,8)	(-12,1)	(2,40)	(4,30)	(3,8)	(11,70)	(14,5)	(-4,17)	(1,33)	(16,33)	
L1D -4>	(-7,113)	(-2,2)	(-1,0)	(14,0)	(2,0)	(-4,0)	(4,21)	(8,0)	(3,0)	(-228,0)	(-52,0)	(221,0)	(0,0)	(12,0)	(5,0)	(-35,0)	
L1D -3>	(0,28)	(-1,11)	(5,3)	(3,6)	(-7,15)	(2,18)	(11,1)	(238,1)	(19,43)	(-358,1)	(12,114)	(1,5)	(4,29)	(134,1)	(-370,1)	(414,1)	
L1D -2>	(-1,2)	(-22,2)	(350,1)	(278,1)	(2,114)	(-5,1)	(-62,1)	(206,1)	(-234,1)	(-344,1)	(342,1)	(-354,1)	(-268,1)	(54,1)	(-14,1)	(0,8)	
L1D -1>	(-7,12)	(1,5)	(2,6)	(-11,38)	(-92,1)	(-91,1)	(-72,1)	(4,1)	(-57,1)	(-1,123)	(0,41)	(3,1)	(-2,2)	(-44,1)	(-32,1)	(-19,1)	
L1D 0>	(43,1)	(3,1)	(136,1)	(75,1)	(4,2)	(0,121)	(236,1)	(5,1)	(-56,1)	(8,1)	(-1,1)	(9,1)	(-228,1)	(11,1)	(-4,2)	(-2,21)	
L1D 1>	(1,79)	(-1,23)	(-4,2)	(-40,1)	(-10,4)	(-60,1)	(-3,2)	(0,2)	(3,17)	(-7,3)	(5,2)	(-2,4)	(2,6)	(-5,2)	(-8,1)	(10,3)	
L1D 2>	(180,1)	(172,1)	(-26,2)	(-1,13)	(380,1)	(-48,1)	(-15,4)	(160,1)	(-16,1)	(100,2)	(0,92)	(-2,66)	(-42,1)	(132,1)	(1,5)	(432,1)	
L1D 3>	(20,6)	(-3,20)	(77,1)	(5,2)	(15,2)	(-2,7)	(11,51)	(-9,11)	(14,18)	(22,40)	(8,119)	(-1,19)	(-15,8)	(3,50)	(2,4)	(1,7)	
L1D 4>	(51,1)	(-4,91)	(1,2)	(-62,1)	(60,1)	(-1,2)	(182,1)	(3,2)	(-7,2)	(-50,1)	(13,1)	(0,4)	(14,0)	(-11,5)	(6,0)	(2,1)	
L1D 5>	(-122,1)	(-83,1)	(-4,77)	(-10,0)	(-17,0)	(-6,0)	(-5,5)	(-1,0)	(-9,0)	(0,0)	(11,0)	(-19,0)	(6,5)	(20,0)	(1,0)	(5,0)	
L1D 6>	(-6,33)	(3,1)	(-27,2)	(10,56)	(-1,4)	(-13,20)	(8,1)	(-5,10)	(21,1)	(19,1)	(-4,82)	(1,6)	(0,6)	(-7,5)	(6,1)	(-22,1)	
L1D 7>	(41,36)	(0,5)	(42,8)	(-22,1)	(-7,35)	(-4,85)	(8,14)	(-17,1)	(1,5)	(16,1)	(-12,1)	(23,1)	(-1,5)	(-6,2)	(-15,2)	(-8,1)	
L1D 8>	(-8,34)	(-10,3)	(-5,19)	(180,1)	(0,18)	(-7,4)	(-4,87)	(-412,1)	(-12,1)	(-15,3)	(20,1)	(6,16)	(-14,1)	(-11,1)	(8,3)	(-1,1)	
L1D 9>	(72,1)	(20,2)	(2,5)	(9,84)	(-2,2)	(-337,2)	(-25,2)	(-22,4)	(1,19)	(38,2)	(-9,66)	(-274,2)	(-1,7)	(0,18)	(-3,23)	(-153,2)	
L1D 10>	(-8,12)	(-10,78)	(-5,98)	(9,40)	(1,83)	(-3,24)	(0,44)	(-12,7)	(5,69)	(-14,66)	(3,77)	(-1,11)	(67,1)	(-20,36)	(2,7)	(-6,78)	
L1D 11>	(-123,0)	(108,0)	(-4,111)	(0,0)	(14,1)	(35,0)	(-19,0)	(1,1)	(-1,0)	(-13,0)	(-11,0)	(9,0)	(2,0)	(6,0)	(-12,0)	(-23,0)	
L1D 12>	(-24,6)	(9,99)	(-12,36)	(-1,16)	(12,5)	(-3,97)	(240,3)	(0,3)	(106,2)	(-13,85)	(144,1)	(-8,71)	(-2,6)	(-288,2)	(36,3)	(44,3)	
L1D 13>	(-85,1)	(-12,10)	(-13,93)	(-1,17)	(0,34)	(-10,47)	(1,15)	(-8,23)	(65,10)	(52,10)	(39,15)	(-14,6)	(-15,64)	(13,33)	(26,22)	(-52,6)	
L1D 14>	(-22,74)	(16,1)	(-6,29)	(-13,32)	(-1,17)	(-14,29)	(-29,2)	(35,2)	(13,2)	(0,3)	(-15,2)	(2,7)	(1,5)	(-61,1)	(103,1)	(-18,3)	
L1D 15>	(-2,19)	(-59,1)	(15,5)	(-15,19)	(14,1)	(0,8)	(-10,82)	(-30,1)	(-14,96)	(-28,1)	(33,1)	(-1,4)	(7,1)	(-7,2)	(-18,2)	(1,3)	
L1D 16>	(-16,106)	(-1,17)	(-10,28)	(-2,15)	(1,15)	(-9,60)	(-8,59)	(2,1)	(81,2)	(-15,8)	(0,34)	(-19,4)	(-17,2)	(-20,47)	(-14,9)	(8,5)	
L1D 17>	(-17,86)	(-16,6)	(-18,6)	(-19,10)	(1,17)	(-1,17)	(47,2)	(-8,2)	(3,3)	(-20,3)	(-21,2)	(0,16)	(17,3)	(-86,1)	(-40,1)	(35,1)	
L1D 18>	(-17,5)	(-18,83)	(0,48)	(-9,8)	(1,10)	(-19,4)	(27,1)	(98,1)	(-20,2)	(-22,2)	(18,3)	(81,1)	(-45,1)	(2,8)	(-1,16)	(9,7)	
L1D 19>	(55,1)	(-8,54)	(-13,76)	(-1,23)	(-28,0)	(-25,0)	(73,0)	(-19,0)	(69,0)	(0,0)	(-6,0)	(11,0)	(1,0)	(1,0)	(1,0)	(1,0)	
L1D 20>	(-176,3)	(-20,54)	(1,6)	(-66,51)	(-26,93)	(-38,88)	(4,1)	(-78,40)	(-2,9)	(124,1)	(-45,22)	(32,2)	(-1,8)	(-34,5)	(2,4)	(0,17)	
L1D 21>	(-21,87)	(21,2)	(1,9)	(-1,16)	(2,2)	(-24,3)	(6,2)	(0,10)	(-20,5)	(-10,2)	(91,2)	(-87,1)	(26,1)	(-23,4)	(43,2)	(55,1)	
L1D 22>	(-22,14)	(20,69)	(-18,11)	(-4,4)	(89,1)	(88,1)	(0,2)	(-29,1)	(-30,0)	(-39,2)	(11,0)	(-1,1)	(31,0)	(1,2)	(29,0)	(-23,0)	
L1D 23>	(-23,117)	(-22,12)	(-66,3)	(-24,14)	(0,12)	(1,18)	(-1,17)	(-34,2)	(-86,2)	(3,3)	(23,2)	(-2,6)	(-11,3)	(-28,2)	(-25,9)	(86,1)	
L1D 24>	(-24,117)	(0,44)	(-1,13)	(-25,4)	(1,24)	(-2,28)	(-23,6)	(-66,1)	(-79,2)	(-49,2)	(-107,2)	(26,3)	(-52,9)	(-28,4)	(2,7)	(-32,5)	
L1D 25>	(-25,62)	(-128,1)	(-22,5)	(1,7)	(5,2)	(-24,10)	(-23,2)	(0,3)	(-29,1)	(-1,8)	(-20,100)	(12,1)	(-28,3)	(-2,5)	(2,2)	(-26,2)	
L1D 26>	(-26,115)	(-78,10)	(1,11)	(0,54)	(2,13)	(-91,12)	(52,22)	(39,30)	(-52,11)	(26,53)	(13,66)	(-143,12)	(-1,15)	(-39,21)	(-67,1)	(-169,7)	
L1D 27>	(-48,2)	(-27,113)	(27,4)	(-35,2)	(9,5)	(-33,4)	(270,3)	(0,57)	(-26,3)	(1,9)	(36,2)	(46,1)	(45,1)	(-18,4)	(-9,1)	(-1,11)	
L1D 28>	(-28,115)	(0,39)	(-70,2)	(-68,1)	(-96,1)	(1,8)	(-29,3)	(-7,1)	(-116,2)	(-1,17)	(-12,3)	(-236,1)	(-2,17)	(-27,10)	(-30,3)	(-35,3)	
L1D 29>	(-29,108)	(1,13)	(-28,9)	(-75,2)	(8,9)	(-31,3)	(-34,2)	(-33,3)	(-1,21)	(0,3)	(-36,2)	(-30,2)	(77,1)	(-48,1)	(-35,2)	(-52,2)	
L1D 30>	(-30,112)	(1,8)	(8,2)	(-36,2)	(30,2)	(-49,2)	(-29,6)	(-31,3)	(-34,3)	(-1,18)	(0,16)	(-81,2)	(40,1)	(-28,3)	(-15,1)	(2,19)	
L1D 31>	(-31,127)	(19,2)	(1,16)	(-30,11)	(6,2)	(-69,1)	(-71,1)	(-32,5)	(129,1)	(-125,1)	(2,5)	(-1,15)	(0,12)	(4,5)	(53,2)	(-72,1)	
L1D 32>	(-31,5)	(-32,113)	(-8,3)	(0,27)	(-2,17)	(-52,3)	(8,2)	(1,8)	(-82,2)	(-1,13)	(-36,3)	(-88,1)	(52,1)	(176,1)	(-16,1)	(-34,1)	
L1D 33>	(-33,73)	(1,10)	(108,1)	(-34,2)	(73,1)	(-38,1)	(-1,14)	(191,1)	(8,1)	(-32,4)	(-36,3)	(0,6)	(-23,1)	(-39,1)	(-37,2)	(-15,2)	
L1D 34>	(-34,65)	(-32,3)	(1,11)	(-33,3)	(-37,1)	(16,1)	(34,1)	(-35,1)	(2,12)	(65,1)	(-36,1)	(59,0)	(-1,13)	(-44,1)	(-2,3)	(0,9)	
L1D 35>	(-35,65)	(1,8)	(0,5)	(-37,3)	(35,4)	(62,1)	(-48,82)	(-1,12)	(-17,1)	(-34,5)	(-52,1)	(-85,1)	(-110,1)	(-36,1)	(28,1)	(11,1)	
L1D 36>	(-36,121)	(0,98)	(-35,4)	(36,2)	(220,3)	(1,8)	(-1,8)	(-9,5)	(-39,2)	(-37,2)	(108,4)	(54,1)	(-48,30)	(-2,9)	(2,3)	(99,4)	
L1D 37>	(-36,10)	(-37,77)	(1,8)	(-43,1)	(0,4)	(-41,1)	(-127,1)	(-38,3)	(122,1)	(-52,1)	(-1,14)	(-42,1)	(2,1)	(-40,2)	(-39,2)	(-18,2)	
L1D 38>	(-37,6)	(-38,70)	(-45,95)	(2,8)	(-40,2)	(-34,17)	(-60,3)	(0,11)	(1,9)	(4,3)	(-39,3)	(-47,2)	(-2,2)	(31,1)	(51,1)	(-1,12)	
L1D 39>	(-39,114)	(1,11)	(-38,1)	(39,34)	(26,45)	(-26,22)	(52,24)	(-1,14)	(78,12)	(-364,3)	(-143,10)	(13,49)	(91,24)	(-13,33)	(0,50)	(-65,16)	
L1D 40>	(-40,93)	(1,7)	(7,2)	(2,8)	(56,3)	(-2,18)	(-39,4)	(-108,2)	(0,51)	(-54,2)	(-41,3)	(-48,2)	(28,1)	(-1,13)	(-42,3)	(24,1)	
L1D 41>	(1,106)	(-41,12)	(-73,1)	(18,1)	(39,1)	(-91,1)	(33,0)	(178,1)	(52,0)	(-59,0)	(-40,1)	(-1,2)	(-82,0)	(0,1)	(2,0)	(-53,0)	
L1D 42>	(50,2)	(-20,9)	(-42,34)	(1,94)	(2,7)	(42,2)	(-41,4)	(-84,1)	(-40,1)	(17,1)	(-1,10)	(-78,1)	(-49,1)	(0,11)	(8,1)	(-5,1)	
L1D 43>	(-21,33)	(-43,125)	(1,20)	(-1,27)	(-44,7)	(-42,7)	(-45,3)	(175,1)	(0,10)	(12,1)	(-46,1)	(-64,1)	(-72,1)	(2,2)	(-77,1)	(-54,2)	
L1D 44>	(-44,100)	(1,7)	(-43,5)	(-172,3)	(-45,2)	(-2,26)	(0,52)	(-72,1)	(8,1)	(100,1)	(-53,2)	(204,1)	(6,1)	(2,4)	(-1,14)	(-356,1)	
L1D 45>	(-81,1)	(9,1)	(-45,68)	(0,46)	(81,3)	(-44,2)	(-1,7)	(45,2)	(1,3)	(-49,1)	(18,2)	(-108,1)	(21,1)	(-18,1)	(-46,1)	(108,1)	
L1D 46>	(-2,5)	(-46,110)	(-73,1)	(-56,2)	(-400,2)	(46,3)	(2,24)	(-45,5)	(-92,2)	(1,18)	(-93,2)	(0,17)	(-22,3)	(29,2)	(92,2)	(-1,18)	
L1D 47>	(1,54)	(-47,92)	(-60,3)	(-64,2)	(-46,7)	(-92,1)	(-49,1)	(-1,17)	(-8,1)	(170,2)	(-161,1)	(-50,1)	(0,2)	(3,3)	(-23,1)	(-74,1)	
L1D 48>	(-48,123)	(1,15)	(-1,20)	(-121,1)	(-2,26)	(424,2)	(248,2)	(0,68)	(4,2)	(-55,2)	(3,2)	(2,5)	(-268,3)	(-94,2)	(-49,3)	(304,4)	
L1D 49>	(1,76)	(-132,2)	(-49,72)	(-1,16)	(-48,5)	(-57,2)	(-65,2)	(0,7)	(-55,3)	(-24,1)	(16,1)	(-299,2)	(2,2)	(-198,1)	(87,1)	(39,1)	
L1D 50>	(-50,108)	(41,1)	(-10,10)	(1,19)	(-49,9)	(2,33)	(-2,12)	(-1,20)	(-48,5)	(0,25)	(-63,2)	(35,2)	(-52,7)	(-92,2)	(32,2)	(-146,2)	
L1D 51>	(-51,120)	(1,11)	(-69,2)	(0,7)	(30,2)	(-56,2)	(3,4)	(39,2)	(-50,9)	(-53,2)	(71,1)	(-81,1)	(-60,1)	(-3,2)	(-304,1)	(-1,26)	
L1D 52>	(-52,78)	(-26,9)	(26,11)	(56,1)	(2,5)	(1,4)	(156,5)	(221,5)	(0,49)	(13,19)	(-13,20)	(-2,12)	(39,13)	(-1,7)	(-312,2)	(52,9)	
L1D 53>	(-53,113)	(1,12)	(-52,7)	(70,1)	(-61,1)	(-62,1)	(-1,33)	(-125,1)	(10,1)	(14,1)	(-57,3)	(-55,1)	(-71,1)	(-70,1)	(-195,1)	(0,10)	
L1D 54>	(-54,103)	(-56,2)	(1,5)	(35,1)	(2,19)	(45,3)	(-62,1)	(-2,5)	(-52,3)	(-53,5)	(0,78)	(-18,3)	(-27,3)	(54,4)	(243,1)	(-1,10)	
L1D 55>	(1,10)	(24,2)	(-76,2)	(-54,10)	(-55,114)	(-1,21)	(-74,1)	(-63,1)	(10,2)	(-56,3)	(-68,2)	(0,5)	(7,2)	(3,4)	(8,12)	(-72,1)	
L1D 56>	(0,45)	(-2,16)	(-56,90)	(32,1)	(-224,1)	(-68,3)	(68,4)	(-54,1)	(2,4)	(4,1)	(20,2)	(-184,1)	(-1,11)	(1,5)	(-55,4)	(22,1)	
L1D 57>	(1,8)	(-67,1)	(-57,66)	(-74,1)	(28,0)	(47,0)	(33,0)	(-56,4)	(-1,11)	(0,3)	(-60,0)	(2,2)	(-125,0)	(76,0)	(-64,1)	(75,0)	
L1D 58>	(-56,8)	(-2,8)	(1,13)	(67,2)	(-58,96)	(-57,9)	(0,15)	(60,1)	(-74,1)	(-68,1)	(232,1)	(2,19)	(-1,22)	(-59,4)	(-82,1)	(-70,4)	
L1D 59>	(-75,2)	(-59,105)	(16,2)	(20,1)	(-58,8)	(1,12)	(-1,20)	(70,1)	(25,1)	(-3,2)	(0,6)	(-116,1)	(-81,1)	(-61,1)	(-86,1)	(2,1)	
L1D 60>	(-60,72)	(1,4)	(128,2)	(2,3)	(0,33)	(-44,1)	(-2,19)	(92,1)	(311,1)	(91,1)	(-65,1)	(-78,1)	(-59,2)	(36,1)	(-1,12)	(60,2)	
L1D 61>	(-61,88)	(-60,4)	(1,14)	(-62,4)	(31,1)	(4,1)	(-74,1)	(-109,1)	(-1,22)	(0,6)	(20,1)	(-76,1)	(69,1)	(-66,1)	(-82,1)	(38,1)	
L1D 62>	(-62,91)	(1,12)	(-61,9)	(-79,2)	(2,23)	(-1,16)	(224,1)	(104,1)	(-2,8)	(0,28)	(-118,1)	(273,2)	(-215,1)	(-64,1)	(-60,7)	(89,2)	
L1D 63>	(0,102)	(1,6)	(-66,2)	(-63,118)	(-1,15)	(9,4)	(23,2)	(45,4)	(-36,1)	(-62,7)	(-45,4)	(-9,5)	(-111,1)	(-153,1)	(-18,1)	(72,2)	
L1D 64>	(2,10)	(-181,2)	(-2,39)	(-444,2)	(16,1)	(1,13)	(-64,109)	(-63,2)	(-1,15)	(-40,1)	(-93,1)	(228,3)	(-76,2)	(-71,1)	(-66,1)	(0,75)	
L1D 65>	(-65,68)	(13,29)	(39,17)	(26,28)	(-1,11)	(-78,17)	(-2,1)	(-143,15)	(-64,6)	(1,6)	(0,41)	(-221,9)	(-104,17)	(299,3)	(182,6)	(-234,5)	
L1D 66>	(1,23)	(2,39)	(-64,8)	(-66,118)	(-1,32)	(21,1)	(0,24)	(-2,12)	(-65,9)	(10,4)	(-113,1)	(-75,2)	(-92,1)	(36,2)	(238,2)	(-129,1)	
[...]
L1D 493>	(-492,2)	(-493,1)	(-172,1)	(-1,1)	(1,0)	(1,0)	(1,0)	(1,0)	(1,0)	(1,0)	(1,0)	(1,0)	(1,0)	(1,0)	(1,0)	(1,0)	
L1D 494>	(-494,6)	(-351,7)	(-260,25)	(-416,29)	(-481,10)	(-299,1)	(-273,3)	(-208,8)	(0,6)	(-403,2)	(-234,2)	(-65,4)	(-1,1)	(2,6)	(-104,1)	(-13,2)	
L1D 495>	(0,16)	(-126,1)	(-495,7)	(-360,1)	(-225,1)	(-450,2)	(-494,3)	(-252,1)	(-14,2)	(-441,1)	(-9,1)	(-432,1)	(-171,1)	(-459,2)	(-486,1)	(-36,1)	
L1D 496>	(0,10)	(-508,2)	(-344,2)	(-316,2)	(-228,2)	(-416,1)	(-336,1)	(-120,1)	(-2,3)	(-204,1)	(-256,1)	(-400,1)	(-224,1)	(-252,1)	(2,2)	(-496,1)	
L1D 497>	(-496,2)	(-497,1)	(8,1)	(1,0)	(1,0)	(1,0)	(1,0)	(1,0)	(1,0)	(1,0)	(1,0)	(1,0)	(1,0)	(1,0)	(1,0)	(1,0)	
L1D 498>	(-498,1)	(-256,1)	(-112,1)	(2,1)	(0,1)	(-497,1)	(-128,1)	(-80,1)	(1,0)	(1,0)	(1,0)	(1,0)	(1,0)	(1,0)	(1,0)	(1,0)	
L1D 499>	(-1,1)	(0,1)	(1,0)	(1,0)	(1,0)	(1,0)	(1,0)	(1,0)	(1,0)	(1,0)	(1,0)	(1,0)	(1,0)	(1,0)	(1,0)	(1,0)	
L1D 500>	(0,9)	(2,2)	(-500,3)	(-444,1)	(-499,1)	(-424,2)	(-204,3)	(-2,3)	(-376,1)	(-416,1)	(-428,1)	(-152,1)	(-248,1)	(-200,1)	(-1,2)	(4,1)	
L1D 501>	(-1,1)	(-500,1)	(1,0)	(1,0)	(1,0)	(1,0)	(1,0)	(1,0)	(1,0)	(1,0)	(1,0)	(1,0)	(1,0)	(1,0)	(1,0)	(1,0)	
L1D 502>	(0,4)	(-502,3)	(2,1)	(1,0)	(1,0)	(1,0)	(1,0)	(1,0)	(1,0)	(1,0)	(1,0)	(1,0)	(1,0)	(1,0)	(1,0)	(1,0)	
L1D 503>	(-502,2)	(-503,1)	(1,0)	(1,0)	(1,0)	(1,0)	(1,0)	(1,0)	(1,0)	(1,0)	(1,0)	(1,0)	(1,0)	(1,0)	(1,0)	(1,0)	
L1D 504>	(-2,3)	(0,14)	(2,2)	(-268,2)	(-208,1)	(-279,2)	(-504,3)	(-1,1)	(-400,1)	(-9,1)	(-378,1)	(-76,1)	(-344,1)	(-356,1)	(-428,1)	(-500,1)	
L1D 505>	(-505,1)	(-400,1)	(-10,1)	(-504,1)	(1,0)	(1,0)	(1,0)	(1,0)	(1,0)	(1,0)	(1,0)	(1,0)	(1,0)	(1,0)	(1,0)	(1,0)	
L1D 506>	(-504,1)	(-142,1)	(0,6)	(-506,2)	(2,2)	(-505,1)	(1,0)	(1,0)	(1,0)	(1,0)	(1,0)	(1,0)	(1,0)	(1,0)	(1,0)	(1,0)	
L1D 507>	(-208,1)	(0,3)	(-338,2)	(-260,2)	(-221,1)	(-13,1)	(-364,1)	(-325,1)	(-39,1)	(-312,1)	(-247,1)	(-442,1)	(1,0)	(1,0)	(1,0)	(1,0)	
L1D 508>	(-84,1)	(-360,1)	(-452,1)	(-420,1)	(-276,2)	(-507,1)	(-156,1)	(-2,2)	(-388,1)	(-324,2)	(-52,1)	(0,2)	(-400,1)	(-100,1)	(-356,1)	(-128,1)	
L1D 509>	(-26,1)	(1,0)	(1,0)	(1,0)	(1,0)	(1,0)	(1,0)	(1,0)	(1,0)	(1,0)	(1,0)	(1,0)	(1,0)	(1,0)	(1,0)	(1,0)	
L1D 510>	(-509,1)	(-246,1)	(1,0)	(1,0)	(1,0)	(1,0)	(1,0)	(1,0)	(1,0)	(1,0)	(1,0)	(1,0)	(1,0)	(1,0)	(1,0)	(1,0)	
L1D 511>	(1,0)	(1,0)	(1,0)	(1,0)	(1,0)	(1,0)	(1,0)	(1,0)	(1,0)	(1,0)	(1,0)	(1,0)	(1,0)	(1,0)	(1,0)	(1,0)	

L2C -64>	(2,57)	(1,146)	(-1,36)	(-5,32)	(10,13)	(6,37)	(8,10)	(-2,27)	(-9,6)	(9,1)	(4,35)	(0,12)	(14,12)	(5,28)	(-12,10)	(-6,30)	
L2C -63>	(60,2)	(1,7)	(31,1)	(39,3)	(29,1)	(41,1)	(3,2)	(23,4)	(32,2)	(36,2)	(13,1)	(30,1)	(0,2)	(49,1)	(18,1)	(54,2)	
L2C -62>	(15,2)	(61,1)	(11,2)	(21,8)	(1,4)	(50,1)	(63,4)	(-1,4)	(4,2)	(33,3)	(52,2)	(26,3)	(27,3)	(32,2)	(51,2)	(0,4)	
L2C -61>	(53,4)	(56,3)	(39,1)	(2,4)	(26,3)	(45,5)	(30,3)	(8,5)	(31,2)	(1,7)	(43,1)	(46,4)	(23,2)	(32,5)	(9,7)	(60,4)	
L2C -60>	(41,5)	(42,7)	(13,7)	(1,9)	(57,1)	(45,7)	(-1,3)	(4,5)	(55,10)	(52,6)	(6,4)	(3,10)	(58,23)	(29,6)	(2,9)	(59,7)	
L2C -59>	(44,4)	(23,22)	(5,10)	(12,7)	(58,9)	(54,5)	(32,1)	(2,9)	(0,5)	(37,5)	(28,4)	(38,2)	(39,23)	(-1,2)	(13,6)	(3,7)	
L2C -58>	(1,10)	(8,6)	(43,4)	(3,6)	(32,6)	(48,6)	(20,3)	(14,2)	(21,7)	(54,11)	(52,6)	(-1,7)	(44,11)	(58,9)	(0,8)	(15,3)	
L2C -57>	(58,5)	(50,11)	(2,19)	(1,15)	(-1,8)	(32,1)	(56,10)	(3,15)	(52,17)	(26,14)	(13,12)	(49,14)	(46,14)	(54,9)	(43,6)	(5,9)	
L2C -56>	(-1,8)	(1,23)	(55,7)	(56,7)	(10,27)	(28,1)	(14,6)	(58,5)	(5,8)	(11,8)	(9,9)	(63,2)	(6,3)	(36,7)	(33,2)	(60,10)	
L2C -55>	(18,33)	(1,14)	(55,60)	(32,10)	(14,1)	(0,11)	(23,34)	(42,12)	(49,7)	(34,13)	(-8,4)	(59,5)	(20,8)	(24,9)	(17,2)	(-1,5)	
L2C -54>	(28,11)	(30,9)	(10,14)	(44,9)	(1,12)	(8,16)	(-1,36)	(52,13)	(-2,7)	(49,18)	(16,1)	(22,4)	(13,14)	(45,11)	(42,29)	(53,9)	
L2C -53>	(1,33)	(44,10)	(33,27)	(50,4)	(51,1)	(-1,23)	(43,3)	(3,4)	(36,5)	(19,7)	(53,9)	(55,7)	(37,9)	(47,11)	(30,4)	(8,17)	
L2C -52>	(13,22)	(35,1)	(6,13)	(-1,36)	(30,7)	(47,45)	(51,12)	(17,16)	(28,15)	(39,32)	(19,13)	(-5,32)	(52,24)	(5,21)	(14,12)	(27,18)	
L2C -51>	(-1,18)	(-4,1)	(34,9)	(1,19)	(9,27)	(28,16)	(41,16)	(51,21)	(3,9)	(20,20)	(33,33)	(2,28)	(52,31)	(12,16)	(35,9)	(23,38)	
L2C -50>	(1,42)	(-1,16)	(-7,4)	(39,25)	(37,19)	(52,14)	(22,6)	(38,9)	(42,1)	(29,23)	(21,8)	(48,7)	(33,27)	(17,43)	(3,12)	(-6,8)	
L2C -49>	(7,21)	(19,11)	(1,14)	(40,12)	(30,26)	(23,18)	(13,20)	(42,12)	(35,1)	(5,22)	(41,19)	(2,17)	(34,15)	(29,28)	(14,6)	(28,30)	
L2C -48>	(1,32)	(23,15)	(-12,1)	(8,15)	(51,10)	(29,10)	(11,11)	(-1,30)	(10,13)	(18,10)	(-6,7)	(16,9)	(21,21)	(24,21)	(-2,17)	(32,7)	
L2C -47>	(1,30)	(-1,27)	(6,17)	(39,36)	(45,11)	(55,10)	(13,1)	(2,27)	(29,17)	(3,29)	(34,22)	(37,15)	(18,15)	(-2,18)	(28,16)	(50,13)	
L2C -46>	(-8,11)	(1,18)	(2,37)	(5,15)	(46,32)	(9,1)	(10,20)	(-7,7)	(15,45)	(56,35)	(30,14)	(-1,33)	(39,48)	(41,17)	(36,31)	(28,19)	
L2C -45>	(23,19)	(44,25)	(40,40)	(-2,20)	(36,20)	(39,17)	(-1,42)	(1,29)	(4,1)	(19,25)	(49,12)	(30,13)	(6,17)	(34,26)	(17,15)	(3,23)	
L2C -44>	(45,32)	(5,26)	(50,1)	(26,41)	(3,20)	(13,41)	(17,23)	(31,23)	(54,15)	(1,35)	(20,30)	(19,19)	(39,45)	(37,18)	(21,26)	(0,26)	
L2C -43>	(1,39)	(32,16)	(4,14)	(11,20)	(18,27)	(50,6)	(-2,16)	(2,1)	(-11,14)	(5,18)	(16,12)	(20,27)	(19,15)	(13,21)	(-4,11)	(-1,22)	
L2C -42>	(1,31)	(6,30)	(10,1)	(30,16)	(33,17)	(13,19)	(34,26)	(9,16)	(-1,38)	(39,31)	(2,20)	(-5,26)	(56,8)	(47,20)	(3,37)	(12,10)	
L2C -41>	(8,27)	(9,1)	(1,30)	(13,27)	(21,22)	(-1,54)	(44,22)	(31,35)	(42,18)	(2,54)	(14,20)	(29,18)	(37,19)	(40,8)	(-13,17)	(41,53)	
L2C -40>	(27,54)	(1,55)	(6,16)	(10,14)	(-5,16)	(12,16)	(36,1)	(3,21)	(14,20)	(5,31)	(-1,26)	(-4,17)	(-7,23)	(42,24)	(41,8)	(24,53)	
L2C -39>	(1,68)	(-23,1)	(15,33)	(-3,40)	(2,30)	(12,26)	(6,34)	(39,96)	(27,25)	(40,21)	(-1,43)	(58,12)	(-18,16)	(22,18)	(37,29)	(35,25)	
L2C -38>	(20,74)	(46,43)	(28,20)	(-5,1)	(15,31)	(-4,8)	(32,6)	(41,24)	(-1,53)	(36,31)	(1,28)	(31,21)	(24,5)	(5,13)	(7,28)	(39,34)	
L2C -37>	(37,48)	(2,30)	(1,43)	(44,21)	(12,1)	(11,27)	(9,19)	(20,8)	(-2,42)	(-5,24)	(15,18)	(-1,36)	(35,22)	(6,26)	(42,36)	(-3,21)	
L2C -36>	(8,50)	(41,34)	(11,43)	(-2,28)	(-1,104)	(29,47)	(-14,26)	(36,42)	(40,25)	(52,13)	(-24,1)	(14,19)	(-19,7)	(12,27)	(26,39)	(19,32)	
L2C -35>	(-1,37)	(45,19)	(11,15)	(32,14)	(17,15)	(1,53)	(36,17)	(-26,8)	(4,21)	(25,21)	(-6,31)	(30,36)	(-8,1)	(-3,34)	(59,4)	(22,28)	
L2C -34>	(6,1)	(33,44)	(0,33)	(7,24)	(-11,25)	(-3,55)	(12,20)	(-2,39)	(1,88)	(47,37)	(10,31)	(-1,53)	(36,24)	(14,24)	(34,62)	(23,42)	
L2C -33>	(17,15)	(3,17)	(16,17)	(28,58)	(41,1)	(36,56)	(-6,34)	(43,21)	(-3,43)	(33,95)	(-1,69)	(1,42)	(12,22)	(4,20)	(9,11)	(50,11)	
L2C -32>	(8,23)	(9,1)	(37,35)	(16,32)	(1,69)	(11,37)	(35,22)	(-23,13)	(-6,17)	(22,18)	(34,37)	(40,14)	(3,68)	(31,37)	(-1,58)	(47,13)	
L2C -31>	(1,47)	(25,28)	(-2,58)	(-3,36)	(27,28)	(36,24)	(5,38)	(45,1)	(18,34)	(39,41)	(10,66)	(2,65)	(44,35)	(-8,28)	(-22,11)	(-1,77)	
L2C -30>	(30,56)	(21,46)	(-2,28)	(18,36)	(52,14)	(34,1)	(3,29)	(8,20)	(35,16)	(36,17)	(11,25)	(-1,84)	(4,47)	(-4,23)	(9,11)	(38,13)	
L2C -29>	(1,71)	(31,35)	(8,63)	(-20,46)	(17,14)	(22,24)	(16,38)	(38,14)	(6,56)	(35,20)	(-7,68)	(-3,1)	(46,12)	(4,15)	(-5,76)	(37,27)	
L2C -28>	(1,34)	(32,32)	(-14,17)	(29,64)	(24,1)	(-1,71)	(-12,11)	(27,23)	(12,64)	(19,16)	(-23,27)	(-9,32)	(49,39)	(-11,33)	(8,45)	(33,37)	
L2C -27>	(1,55)	(23,23)	(34,59)	(31,43)	(9,20)	(12,14)	(-1,74)	(16,22)	(8,31)	(25,16)	(22,61)	(42,21)	(55,1)	(-15,22)	(26,46)	(47,13)	
L2C -26>	(1,67)	(-1,72)	(18,56)	(41,19)	(9,26)	(26,143)	(4,45)	(31,43)	(21,92)	(15,70)	(-3,72)	(-10,45)	(24,32)	(25,1)	(-2,41)	(-5,65)	
L2C -25>	(25,67)	(22,32)	(1,47)	(18,36)	(-5,1)	(31,39)	(32,12)	(45,5)	(-32,22)	(-4,28)	(16,20)	(39,17)	(8,45)	(-1,79)	(17,30)	(21,37)	
L2C -24>	(6,36)	(1,74)	(2,45)	(3,42)	(55,1)	(-1,68)	(33,15)	(-2,43)	(-31,20)	(-11,17)	(-12,27)	(35,15)	(22,36)	(27,34)	(-10,49)	(31,42)	
L2C -23>	(1,82)	(44,32)	(19,25)	(31,59)	(22,37)	(-1,89)	(23,91)	(27,24)	(-15,20)	(-27,35)	(-4,27)	(16,38)	(29,1)	(10,51)	(21,81)	(-29,12)	
L2C -22>	(-8,40)	(18,1)	(16,39)	(1,78)	(31,31)	(21,46)	(-14,13)	(-1,74)	(-32,7)	(24,34)	(27,27)	(4,31)	(-7,56)	(5,34)	(17,32)	(-33,12)	
L2C -21>	(1,91)	(5,49)	(-1,105)	(-2,84)	(-12,34)	(42,30)	(15,42)	(14,1)	(30,45)	(7,39)	(35,23)	(-4,45)	(-18,42)	(2,66)	(25,31)	(-21,20)	
L2C -20>	(-1,158)	(31,62)	(-9,28)	(7,47)	(1,77)	(21,60)	(28,30)	(52,37)	(15,1)	(8,34)	(18,55)	(-14,27)	(9,25)	(25,76)	(-29,14)	(-13,50)	
L2C -19>	(1,101)	(-1,92)	(13,60)	(20,14)	(4,22)	(5,41)	(-3,47)	(33,1)	(3,28)	(-2,82)	(11,58)	(-24,11)	(17,30)	(-29,13)	(-5,40)	(36,16)	
L2C -18>	(1,79)	(-24,38)	(-1,138)	(-18,64)	(45,36)	(23,44)	(-5,61)	(-23,39)	(16,84)	(11,43)	(22,42)	(7,1)	(15,68)	(-20,19)	(9,29)	(12,36)	
L2C -17>	(0,41)	(19,1)	(17,53)	(23,31)	(13,60)	(38,17)	(29,29)	(18,52)	(-1,74)	(1,89)	(-7,24)	(3,36)	(27,20)	(12,34)	(-25,11)	(43,15)	
L2C -16>	(29,59)	(-2,68)	(-1,119)	(15,63)	(36,1)	(-5,87)	(14,47)	(-14,20)	(10,70)	(1,84)	(39,54)	(38,34)	(5,78)	(2,81)	(-6,49)	(-34,21)	
L2C -15>	(42,1)	(11,39)	(1,67)	(12,47)	(21,34)	(-16,34)	(8,65)	(-14,41)	(-3,52)	(2,104)	(-8,74)	(47,20)	(-24,35)	(39,23)	(-1,86)	(15,121)	
L2C -14>	(1,108)	(11,51)	(-9,23)	(-7,74)	(-1,88)	(19,43)	(-13,34)	(50,7)	(-4,33)	(40,74)	(-27,12)	(14,44)	(-2,80)	(9,37)	(30,1)	(3,70)	
L2C -13>	(-1,149)	(6,50)	(13,109)	(15,78)	(17,54)	(32,34)	(-13,74)	(-4,30)	(-14,35)	(36,38)	(12,84)	(21,76)	(-7,55)	(3,72)	(42,1)	(41,30)	
L2C -12>	(1,64)	(7,43)	(13,79)	(3,33)	(-1,95)	(6,23)	(2,67)	(20,43)	(5,62)	(-9,36)	(-8,38)	(-3,57)	(51,11)	(-4,41)	(4,1)	(11,63)	
L2C -11>	(-10,74)	(1,130)	(6,64)	(4,35)	(-15,48)	(-1,87)	(31,31)	(16,93)	(23,61)	(2,52)	(34,1)	(44,27)	(3,70)	(-9,21)	(-7,61)	(13,64)	
L2C -10>	(0,57)	(-6,1)	(-1,214)	(6,47)	(2,74)	(-4,36)	(-8,39)	(15,41)	(11,75)	(20,23)	(-15,25)	(21,28)	(18,48)	(19,31)	(55,6)	(22,27)	
L2C -9>	(1,93)	(-20,33)	(-2,56)	(7,1)	(2,53)	(-21,27)	(-1,143)	(47,14)	(50,11)	(18,31)	(-11,30)	(-18,20)	(20,22)	(-5,22)	(57,9)	(-17,21)	
L2C -8>	(-14,5)	(-7,10)	(11,57)	(-1,31)	(1,15)	(8,23)	(7,13)	(31,8)	(-5,11)	(29,10)	(13,17)	(10,201)	(37,1)	(18,9)	(16,12)	(-18,6)	
L2C -7>	(1,13)	(36,1)	(8,197)	(-8,5)	(6,7)	(-6,9)	(9,15)	(15,17)	(-1,28)	(10,50)	(5,12)	(11,23)	(13,12)	(-34,4)	(-13,6)	(2,22)	
L2C -6>	(-1,20)	(7,138)	(-8,3)	(21,6)	(8,28)	(-18,3)	(5,14)	(10,14)	(1,49)	(-9,1)	(-28,6)	(11,15)	(-2,11)	(12,5)	(9,11)	(23,4)	
L2C -5>	(2,89)	(0,61)	(-17,17)	(10,77)	(-1,134)	(51,1)	(30,15)	(42,12)	(1,150)	(4,42)	(-11,32)	(-14,32)	(18,46)	(-18,29)	(7,106)	(5,113)	
L2C -4>	(1,81)	(17,27)	(15,16)	(-18,1)	(9,45)	(5,193)	(-19,21)	(2,54)	(-1,153)	(6,56)	(-20,13)	(51,3)	(11,72)	(-40,9)	(-4,27)	(10,29)	
L2C -3>	(1,97)	(-44,7)	(-2,145)	(-1,169)	(4,203)	(-3,33)	(8,35)	(19,1)	(6,42)	(-49,9)	(33,14)	(-17,12)	(-31,13)	(29,14)	(-8,21)	(14,20)	
L2C -2>	(-3,9)	(2,14)	(5,12)	(3,76)	(8,14)	(-13,5)	(1,137)	(-10,1)	(-11,6)	(-2,19)	(-1,63)	(23,2)	(-21,4)	(-9,7)	(4,20)	(20,6)	
L2C -1>	(-1,166)	(-2,16)	(8,8)	(6,5)	(24,1)	(-4,9)	(2,116)	(4,11)	(-5,10)	(-3,4)	(-7,9)	(1,15)	(3,25)	(5,3)	(-6,8)	(-11,3)	
L2C 0>	(-5,8)	(-23,4)	(0,198)	(-24,1)	(1,16)	(-21,5)	(-8,15)	(-1,33)	(18,13)	(-36,6)	(-39,4)	(11,6)	(13,14)	(3,11)	(6,7)	(-10,7)	
L2C 1>	(1,168)	(14,2)	(2,24)	(-5,2)	(-1,2)	(21,1)	(-4,1)	(-16,2)	(-2,5)	(-6,2)	(-3,2)	(-33,1)	(3,4)	(9,1)	(-7,2)	(-8,1)	
L2C 2>	(-1,38)	(3,11)	(15,3)	(1,184)	(4,6)	(26,3)	(-31,3)	(-2,3)	(6,8)	(23,1)	(2,21)	(5,7)	(-7,4)	(-8,7)	(10,4)	(8,4)	
L2C 3>	(2,71)	(1,161)	(-3,18)	(-8,16)	(5,35)	(-4,14)	(7,8)	(3,39)	(4,10)	(-5,24)	(-1,57)	(-2,36)	(-27,5)	(14,5)	(13,10)	(-7,1)	
L2C 4>	(1,238)	(-3,18)	(3,38)	(4,38)	(-2,23)	(-14,5)	(13,1)	(-6,14)	(14,7)	(-1,38)	(7,17)	(15,7)	(-4,30)	(-30,6)	(-5,25)	(2,24)	
L2C 5>	(1,233)	(-5,74)	(-10,1)	(2,69)	(12,22)	(-13,26)	(3,53)	(-6,22)	(-1,45)	(-17,10)	(-29,5)	(0,31)	(5,42)	(27,12)	(9,11)	(16,10)	
L2C 6>	(1,162)	(-1,29)	(2,29)	(-6,38)	(5,24)	(17,6)	(-5,47)	(7,12)	(18,3)	(-2,26)	(-22,12)	(16,1)	(10,12)	(-37,5)	(9,4)	(-26,6)	
L2C 7>	(1,143)	(19,4)	(-8,7)	(6,1)	(-15,8)	(-7,14)	(-1,6)	(4,4)	(-6,11)	(-10,5)	(-31,4)	(-3,8)	(5,8)	(-9,5)	(2,4)	(-17,4)	
L2C 8>	(1,43)	(2,211)	(-8,20)	(5,20)	(3,31)	(-5,23)	(-11,18)	(-1,13)	(31,8)	(-16,10)	(-55,1)	(-9,13)	(-36,10)	(8,23)	(4,8)	(-3,18)	
L2C 9>	(-2,42)	(-41,13)	(4,56)	(3,49)	(1,120)	(-8,73)	(2,132)	(20,22)	(-1,143)	(26,15)	(-14,35)	(-35,23)	(34,11)	(-19,1)	(17,22)	(-3,65)	
L2C 10>	(1,169)	(2,17)	(-3,9)	(-23,5)	(21,4)	(-33,3)	(-24,4)	(-11,7)	(-7,6)	(-10,9)	(-13,11)	(-28,6)	(-12,5)	(-1,39)	(24,1)	(5,12)	
L2C 11>	(11,11)	(-25,1)	(5,26)	(-12,18)	(-28,4)	(31,5)	(15,8)	(36,7)	(-1,43)	(-23,15)	(-31,10)	(13,10)	(1,188)	(-3,37)	(-2,22)	(17,13)	
L2C 12>	(1,223)	(-6,31)	(-1,128)	(-13,48)	(-15,34)	(-10,71)	(-23,39)	(-14,28)	(32,17)	(-12,68)	(2,1)	(31,14)	(-8,35)	(-25,44)	(-36,19)	(-18,30)	
L2C 13>	(0,90)	(1,185)	(-26,34)	(16,56)	(-10,115)	(-1,108)	(6,60)	(15,53)	(-11,92)	(5,1)	(-5,154)	(-39,49)	(31,26)	(-18,60)	(-22,35)	(2,97)	
L2C 14>	(1,151)	(-14,143)	(0,54)	(12,64)	(-10,1)	(8,23)	(-2,35)	(24,10)	(7,44)	(9,26)	(-34,26)	(-1,158)	(-62,3)	(27,9)	(22,14)	(-12,33)	
L2C 15>	(-7,45)	(-22,1)	(15,23)	(-57,7)	(40,9)	(-14,39)	(1,203)	(-2,77)	(-1,96)	(-33,67)	(-38,26)	(-9,31)	(3,79)	(-4,45)	(-15,143)	(-17,39)	
L2C 16>	(-5,87)	(-16,115)	(19,18)	(-31,54)	(-20,48)	(1,110)	(-8,55)	(11,69)	(6,39)	(-6,33)	(-1,132)	(20,1)	(-23,29)	(16,34)	(24,20)	(10,44)	
L2C 17>	(-1,89)	(29,7)	(1,90)	(-17,61)	(2,36)	(-19,1)	(11,46)	(-12,38)	(23,10)	(-8,47)	(-32,12)	(-16,63)	(-44,17)	(-2,41)	(-41,38)	(-3,58)	
L2C 18>	(-36,91)	(-26,58)	(4,28)	(-19,1)	(3,48)	(-3,67)	(-17,58)	(-1,85)	(1,97)	(15,37)	(-48,15)	(-16,73)	(-31,43)	(-38,19)	(-37,29)	(7,30)	
L2C 19>	(1,46)	(-19,205)	(-18,59)	(-1,133)	(19,19)	(-21,73)	(-13,56)	(-22,58)	(-11,38)	(-6,45)	(21,27)	(20,1)	(-20,27)	(2,34)	(9,20)	(6,11)	
L2C 20>	(1,64)	(-13,39)	(11,32)	(-1,65)	(-10,34)	(-20,186)	(7,15)	(13,47)	(22,17)	(-22,27)	(-4,25)	(17,1)	(29,20)	(-26,30)	(-11,23)	(-47,9)	
L2C 21>	(-22,39)	(-34,54)	(-14,37)	(-1,94)	(1,93)	(-15,1)	(-10,49)	(-6,46)	(13,43)	(-35,19)	(-9,43)	(-4,37)	(-21,93)	(-31,52)	(-19,45)	(-7,36)	
L2C 22>	(1,47)	(9,20)	(-22,83)	(-1,79)	(-3,28)	(-34,19)	(-11,53)	(-35,1)	(-6,30)	(12,30)	(-28,23)	(-4,37)	(-13,27)	(20,14)	(-24,61)	(-5,78)	
L2C 23>	(-42,22)	(-1,75)	(-4,48)	(-7,40)	(-12,32)	(1,121)	(21,43)	(-8,78)	(-22,24)	(-47,37)	(13,1)	(-43,20)	(-3,35)	(-6,32)	(-23,91)	(-24,58)	
L2C 24>	(-24,75)	(1,80)	(-1,105)	(-35,17)	(16,36)	(-10,32)	(18,1)	(-20,31)	(-42,21)	(-21,43)	(-8,47)	(-17,22)	(-22,46)	(2,51)	(7,32)	(-36,17)	
L2C 25>	(-2,1)	(1,76)	(-28,31)	(-10,26)	(-45,8)	(31,7)	(4,24)	(3,58)	(-20,32)	(-16,22)	(-1,70)	(-38,21)	(-7,40)	(-13,36)	(-26,43)	(-17,32)	
L2C 26>	(-14,40)	(-5,45)	(1,61)	(-42,28)	(-2,39)	(-62,1)	(10,40)	(-6,81)	(8,41)	(-19,37)	(-1,73)	(-7,55)	(-28,66)	(11,49)	(-26,136)	(-9,36)	
L2C 27>	(1,34)	(-26,1)	(-5,28)	(-35,32)	(-34,32)	(-40,16)	(-59,5)	(-1,75)	(2,32)	(0,21)	(-11,34)	(-3,55)	(-18,30)	(-32,25)	(-42,14)	(-4,24)	
L2C 28>	(1,89)	(8,83)	(-34,27)	(-1,52)	(-26,55)	(-29,33)	(-47,1)	(-5,85)	(-41,14)	(-32,18)	(16,18)	(31,2)	(-15,27)	(-21,51)	(-20,83)	(-14,10)	
L2C 29>	(1,74)	(0,46)	(-23,45)	(-1,103)	(-11,73)	(2,1)	(-27,52)	(-8,58)	(-13,81)	(-9,21)	(-52,19)	(-35,20)	(7,30)	(17,17)	(3,25)	(-58,18)	
L2C 30>	(-10,25)	(6,17)	(0,54)	(-22,41)	(-1,67)	(-34,38)	(1,41)	(-24,15)	(-43,18)	(-27,17)	(-31,30)	(-6,45)	(-5,28)	(-32,1)	(-2,42)	(16,23)	
L2C 31>	(-38,18)	(-30,28)	(-17,38)	(1,62)	(3,51)	(-16,63)	(-41,1)	(-1,58)	(-5,28)	(-46,16)	(-31,98)	(-21,46)	(-51,17)	(2,51)	(-10,50)	(-7,33)	
L2C 32>	(1,32)	(-27,47)	(-31,53)	(-1,62)	(-56,2)	(2,26)	(-2,24)	(14,15)	(7,39)	(-26,37)	(-36,23)	(-22,25)	(-53,9)	(-13,51)	(-5,34)	(-25,15)	
L2C 33>	(-1,32)	(0,51)	(6,55)	(-7,55)	(1,86)	(-3,1)	(10,36)	(-18,93)	(-20,25)	(-12,22)	(17,5)	(-8,36)	(-41,38)	(-5,30)	(-34,27)	(-26,34)	
L2C 34>	(-14,25)	(-10,50)	(6,22)	(-1,67)	(11,25)	(-12,1)	(-41,32)	(-6,23)	(-37,32)	(-26,64)	(-35,30)	(1,40)	(-15,34)	(-18,67)	(-28,34)	(-5,37)	
L2C 35>	(-12,1)	(-32,22)	(-29,19)	(2,25)	(18,6)	(-28,23)	(-34,25)	(-1,72)	(-46,14)	(1,67)	(-43,12)	(-3,37)	(-53,21)	(11,8)	(-18,13)	(-2,29)	
L2C 36>	(1,65)	(-49,20)	(-25,24)	(-10,29)	(8,1)	(-43,20)	(-22,25)	(-54,10)	(-24,40)	(-26,40)	(-39,54)	(-47,12)	(-28,48)	(-34,45)	(-1,44)	(24,4)	
L2C 37>	(1,41)	(-7,12)	(-22,1)	(-4,15)	(-19,32)	(-6,21)	(5,18)	(-39,61)	(-38,16)	(-25,11)	(-37,54)	(-35,22)	(6,14)	(2,34)	(-1,52)	(-16,34)	
L2C 38>	(1,52)	(-12,28)	(8,1)	(-9,16)	(-6,13)	(-34,37)	(-27,9)	(2,10)	(-2,31)	(-24,7)	(-45,12)	(4,14)	(-39,36)	(-1,42)	(-30,16)	(-31,21)	
L2C 39>	(-15,1)	(-1,41)	(-51,9)	(-23,42)	(-36,54)	(-26,38)	(-28,37)	(-21,39)	(-35,38)	(-7,66)	(-42,24)	(-37,60)	(-47,21)	(5,21)	(6,20)	(8,23)	
L2C 40>	(-8,48)	(-16,15)	(1,22)	(-26,30)	(-1,65)	(-34,18)	(-38,16)	(-9,13)	(-23,26)	(-21,29)	(-39,27)	(-55,1)	(-41,16)	(3,11)	(-46,7)	(-45,16)	
L2C 41>	(-2,28)	(3,47)	(-35,12)	(-42,32)	(-36,22)	(2,32)	(-25,20)	(-29,16)	(-19,12)	(-8,23)	(-23,1)	(-33,19)	(-18,23)	(-41,45)	(-43,18)	(1,59)	
L2C 42>	(-10,63)	(-40,24)	(-50,14)	(-6,15)	(-5,19)	(-20,25)	(-2,20)	(-3,34)	(-53,1)	(-1,51)	(-22,20)	(3,17)	(-29,57)	(-49,22)	(-34,22)	(-27,18)	
L2C 43>	(-30,20)	(1,23)	(-1,46)	(-5,21)	(7,1)	(-27,6)	(-49,10)	(-40,18)	(13,16)	(-50,27)	(-15,9)	(-46,18)	(0,32)	(-18,18)	(-9,13)	(-10,9)	
L2C 44>	(-21,34)	(1,70)	(-1,60)	(-5,27)	(-14,1)	(-18,39)	(-15,23)	(-44,72)	(-20,16)	(-46,43)	(-35,10)	(-38,18)	(5,28)	(-37,19)	(3,15)	(-19,42)	
L2C 45>	(0,23)	(1,19)	(-19,18)	(-1,60)	(-34,40)	(-47,17)	(-7,9)	(10,1)	(-11,19)	(-44,22)	(-45,56)	(-37,21)	(-9,14)	(-54,7)	(-40,32)	(-4,34)	
L2C 46>	(1,29)	(3,18)	(-10,18)	(-42,13)	(-31,19)	(-1,50)	(-13,1)	(-2,23)	(-34,24)	(-23,17)	(-20,26)	(-41,16)	(0,19)	(-46,23)	(-18,23)	(-21,25)	
L2C 47>	(1,29)	(-23,1)	(-46,19)	(-29,54)	(-1,55)	(-14,16)	(3,32)	(-53,8)	(-59,22)	(-13,19)	(-31,26)	(-39,40)	(-48,15)	(-3,29)	(-49,17)	(-16,26)	
L2C 48>	(-19,9)	(-1,28)	(-48,16)	(3,1)	(-10,7)	(-13,31)	(-17,7)	(-44,30)	(-5,13)	(-53,7)	(-4,14)	(-31,11)	(-24,11)	(-26,6)	(-39,13)	(-25,7)	
L2C 49>	(-26,19)	(-51,13)	(-34,1)	(-10,12)	(-24,12)	(-1,41)	(-23,43)	(-17,9)	(-28,15)	(-5,16)	(-21,14)	(-33,11)	(3,10)	(-39,22)	(-52,11)	(-47,18)	
L2C 50>	(5,9)	(-36,49)	(-23,50)	(-1,43)	(-15,6)	(-35,13)	(1,16)	(-55,1)	(-2,10)	(-31,17)	(-8,35)	(7,16)	(-10,20)	(-53,18)	(4,29)	(-50,23)	
L2C 51>	(-18,1)	(-37,3)	(-47,8)	(-2,11)	(-39,12)	(-1,20)	(-41,8)	(-48,17)	(-49,8)	(-53,8)	(-51,25)	(-20,3)	(-28,31)	(-7,8)	(-25,31)	(7,6)	
L2C 52>	(1,29)	(-39,16)	(-34,17)	(-19,8)	(-51,26)	(-35,8)	(-8,21)	(-21,17)	(-24,10)	(0,14)	(-5,15)	(3,4)	(-26,22)	(-6,1)	(-30,35)	(-50,8)	
L2C 53>	(2,14)	(-28,5)	(-41,9)	(-2,7)	(-50,11)	(-53,8)	(-6,26)	(4,1)	(-55,38)	(-26,25)	(-52,13)	(-47,6)	(1,15)	(-1,44)	(-8,10)	(-11,9)	
L2C 54>	(1,10)	(-29,10)	(-2,12)	(3,4)	(-24,1)	(-44,7)	(-46,5)	(-19,8)	(-45,5)	(-8,9)	(-10,10)	(-18,11)	(-60,2)	(-57,4)	(-51,6)	(-49,11)	
L2C 55>	(-58,15)	(1,9)	(-16,13)	(-50,1)	(-21,6)	(5,5)	(-44,8)	(-6,16)	(-38,3)	(-37,7)	(-20,9)	(0,9)	(-29,19)	(-41,29)	(2,12)	(-23,7)	
L2C 56>	(-28,1)	(-1,27)	(-24,5)	(-42,7)	(-32,6)	(-26,6)	(-58,4)	(-10,8)	(-50,5)	(-52,9)	(-12,8)	(-2,7)	(-62,3)	(-36,5)	(1,9)	(-25,12)	
L2C 57>	(1,15)	(-1,12)	(-40,4)	(-57,18)	(-46,4)	(-18,13)	(-7,9)	(-10,10)	(-20,27)	(-16,11)	(-11,4)	(-49,9)	(-48,1)	(-26,14)	(-39,6)	(-38,2)	
L2C 58>	(-34,1)	(1,10)	(-2,5)	(-1,14)	(-57,6)	(-33,3)	(-18,2)	(-60,6)	(-32,8)	(-24,6)	(-39,2)	(2,11)	(-6,4)	(-26,38)	(-42,6)	(-48,3)	
L2C 59>	(1,8)	(-26,7)	(-19,1)	(-43,2)	(-28,4)	(-29,8)	(-44,7)	(-2,8)	(-1,10)	(-46,2)	(-9,3)	(-13,4)	(-41,5)	(-10,3)	(-59,16)	(-31,3)	
L2C 60>	(-41,12)	(-11,1)	(-48,2)	(-55,2)	(-61,2)	(-2,12)	(-43,18)	(-49,4)	(-8,5)	(2,4)	(-28,5)	(-6,3)	(-59,6)	(-23,21)	(-26,14)	(-20,3)	
L2C 61>	(-9,4)	(-60,10)	(-57,3)	(-53,3)	(-1,3)	(-26,1)	(-43,3)	(-52,25)	(-23,4)	(-36,2)	(-38,3)	(-32,18)	(-13,3)	(-50,4)	(-44,2)	(-24,2)	
L2C 62>	(-19,6)	(-44,2)	(-9,3)	(-30,2)	(-7,2)	(-20,8)	(-34,5)	(-15,1)	(-26,3)	(-52,5)	(-32,3)	(-8,4)	(-28,2)	(-43,1)	(-27,2)	(-36,2)	
L2C 63>	(-27,2)	(-26,2)	(-53,4)	(-32,1)	(-43,1)	(-25,2)	(-29,1)	(-35,1)	(-4,1)	(-34,4)	(-39,3)	(-15,1)	(-17,2)	(-56,3)	(-58,3)	(-19,1)	

DRAM Statistics
 CHANNEL 0
 RQ ROW_BUFFER_HIT:      91320  ROW_BUFFER_MISS:     245780
 DBUS_CONGESTED:     160617
 WQ ROW_BUFFER_HIT:       1388  ROW_BUFFER_MISS:       4553  FULL:          0

 AVG_CONGESTED_CYCLE: 6
