
*** ChampSim Multicore Out-of-Order Simulator ***

Warmup Instructions: 1000000
Simulation Instructions: 10000000
Number of CPUs: 1
LLC sets: 2048
LLC ways: 16
Off-chip DRAM Size: 4096 MB Channels: 1 Width: 64-bit Data Rate: 3200 MT/s

CPU 0 runs /home/aniket/Desktop/sem/cs622/cs622-project/champsim/dpc3_traces/607.cactuBSSN_s-2421B.champsimtrace.xz
Ultra pref. initializing...
Ultra pref. initialized
Ultra pref. initializing...
Ultra pref. initialized

Warmup complete CPU 0 instructions: 1000003 cycles: 548374 (Simulation time: 0 hr 0 min 2 sec) 

Heartbeat CPU 0 instructions: 10000001 cycles: 8164954 heartbeat IPC: 1.22475 cumulative IPC: 1.18163 (Simulation time: 0 hr 0 min 28 sec) 
Finished CPU 0 instructions: 10000000 cycles: 8484238 cumulative IPC: 1.17866 (Simulation time: 0 hr 0 min 31 sec) 

CPU 0 Branch Prediction Accuracy: 99.5557% MPKI: 0.0307 Average ROB Occupancy at Mispredict: 45.127

ChampSim completed all CPUs

Region of Interest Statistics

CPU 0 cumulative IPC: 1.17866 instructions: 10000000 cycles: 8484238
L1D TOTAL     ACCESS:    5647592  HIT:    4412782  MISS:    1234810
L1D LOAD      ACCESS:    3063959  HIT:    2378430  MISS:     685529
L1D RFO       ACCESS:     796904  HIT:     731171  MISS:      65733
L1D PREFETCH  ACCESS:    1786729  HIT:    1303181  MISS:     483548
L1D WRITEBACK ACCESS:          0  HIT:          0  MISS:          0
L1D PREFETCH  REQUESTED:   20056112  ISSUED:    8478959  USEFUL:      39865  USELESS:     486816
L1D AVERAGE MISS LATENCY: 72584.6 cycles
L1I TOTAL     ACCESS:    2277550  HIT:    2017448  MISS:     260102
L1I LOAD      ACCESS:    2277550  HIT:    2017448  MISS:     260102
L1I RFO       ACCESS:          0  HIT:          0  MISS:          0
L1I PREFETCH  ACCESS:          0  HIT:          0  MISS:          0
L1I WRITEBACK ACCESS:          0  HIT:          0  MISS:          0
L1I PREFETCH  REQUESTED:          0  ISSUED:          0  USEFUL:          0  USELESS:          0
L1I AVERAGE MISS LATENCY: 11.1095 cycles
L2C TOTAL     ACCESS:    4240745  HIT:    4174729  MISS:      66016
L2C LOAD      ACCESS:     926534  HIT:     925051  MISS:       1483
L2C RFO       ACCESS:      65634  HIT:      59720  MISS:       5914
L2C PREFETCH  ACCESS:    3173799  HIT:    3115181  MISS:      58618
L2C WRITEBACK ACCESS:      74778  HIT:      74777  MISS:          1
L2C PREFETCH  REQUESTED:   21657593  ISSUED:    5546439  USEFUL:      51597  USELESS:      14963
L2C AVERAGE MISS LATENCY: 144.175 cycles
LLC TOTAL     ACCESS:      72002  HIT:      45118  MISS:      26884
LLC LOAD      ACCESS:       1450  HIT:        825  MISS:        625
LLC RFO       ACCESS:       5914  HIT:         28  MISS:       5886
LLC PREFETCH  ACCESS:      58651  HIT:      38278  MISS:      20373
LLC WRITEBACK ACCESS:       5987  HIT:       5987  MISS:          0
LLC PREFETCH  REQUESTED:          0  ISSUED:          0  USEFUL:        444  USELESS:       3465
LLC AVERAGE MISS LATENCY: 278.145 cycles
Major fault: 0 Minor fault: 687

L1D -512>	(-2,0)	(0,1)	(3,0)	(1,98)	(-7,0)	(-1,1)	(-172,1)	(172,0)	(344,0)	(171,0)	(-17,0)	(1,0)	(1,0)	(1,0)	(1,0)	(1,0)	
L1D -511>	(1,0)	(1,0)	(1,0)	(1,0)	(1,0)	(1,0)	(1,0)	(1,0)	(1,0)	(1,0)	(1,0)	(1,0)	(1,0)	(1,0)	(1,0)	(1,0)	
L1D -510>	(1,0)	(1,0)	(1,0)	(1,0)	(1,0)	(1,0)	(1,0)	(1,0)	(1,0)	(1,0)	(1,0)	(1,0)	(1,0)	(1,0)	(1,0)	(1,0)	
L1D -509>	(1,0)	(1,0)	(1,0)	(1,0)	(1,0)	(1,0)	(1,0)	(1,0)	(1,0)	(1,0)	(1,0)	(1,0)	(1,0)	(1,0)	(1,0)	(1,0)	
L1D -508>	(1,0)	(1,0)	(1,0)	(1,0)	(1,0)	(1,0)	(1,0)	(1,0)	(1,0)	(1,0)	(1,0)	(1,0)	(1,0)	(1,0)	(1,0)	(1,0)	
L1D -507>	(1,0)	(1,0)	(1,0)	(1,0)	(1,0)	(1,0)	(1,0)	(1,0)	(1,0)	(1,0)	(1,0)	(1,0)	(1,0)	(1,0)	(1,0)	(1,0)	
L1D -506>	(1,0)	(1,0)	(1,0)	(1,0)	(1,0)	(1,0)	(1,0)	(1,0)	(1,0)	(1,0)	(1,0)	(1,0)	(1,0)	(1,0)	(1,0)	(1,0)	
L1D -505>	(1,0)	(1,0)	(1,0)	(1,0)	(1,0)	(1,0)	(1,0)	(1,0)	(1,0)	(1,0)	(1,0)	(1,0)	(1,0)	(1,0)	(1,0)	(1,0)	
L1D -504>	(1,0)	(1,0)	(1,0)	(1,0)	(1,0)	(1,0)	(1,0)	(1,0)	(1,0)	(1,0)	(1,0)	(1,0)	(1,0)	(1,0)	(1,0)	(1,0)	
L1D -503>	(1,0)	(1,0)	(1,0)	(1,0)	(1,0)	(1,0)	(1,0)	(1,0)	(1,0)	(1,0)	(1,0)	(1,0)	(1,0)	(1,0)	(1,0)	(1,0)	
L1D -502>	(1,0)	(1,0)	(1,0)	(1,0)	(1,0)	(1,0)	(1,0)	(1,0)	(1,0)	(1,0)	(1,0)	(1,0)	(1,0)	(1,0)	(1,0)	(1,0)	
L1D -501>	(1,0)	(1,0)	(1,0)	(1,0)	(1,0)	(1,0)	(1,0)	(1,0)	(1,0)	(1,0)	(1,0)	(1,0)	(1,0)	(1,0)	(1,0)	(1,0)	
L1D -500>	(1,0)	(1,0)	(1,0)	(1,0)	(1,0)	(1,0)	(1,0)	(1,0)	(1,0)	(1,0)	(1,0)	(1,0)	(1,0)	(1,0)	(1,0)	(1,0)	
L1D -499>	(1,0)	(1,0)	(1,0)	(1,0)	(1,0)	(1,0)	(1,0)	(1,0)	(1,0)	(1,0)	(1,0)	(1,0)	(1,0)	(1,0)	(1,0)	(1,0)	
L1D -498>	(1,0)	(1,0)	(1,0)	(1,0)	(1,0)	(1,0)	(1,0)	(1,0)	(1,0)	(1,0)	(1,0)	(1,0)	(1,0)	(1,0)	(1,0)	(1,0)	
L1D -497>	(1,0)	(1,0)	(1,0)	(1,0)	(1,0)	(1,0)	(1,0)	(1,0)	(1,0)	(1,0)	(1,0)	(1,0)	(1,0)	(1,0)	(1,0)	(1,0)	
L1D -496>	(1,0)	(1,0)	(1,0)	(1,0)	(1,0)	(1,0)	(1,0)	(1,0)	(1,0)	(1,0)	(1,0)	(1,0)	(1,0)	(1,0)	(1,0)	(1,0)	
L1D -495>	(1,0)	(1,0)	(1,0)	(1,0)	(1,0)	(1,0)	(1,0)	(1,0)	(1,0)	(1,0)	(1,0)	(1,0)	(1,0)	(1,0)	(1,0)	(1,0)	
L1D -494>	(1,0)	(1,0)	(1,0)	(1,0)	(1,0)	(1,0)	(1,0)	(1,0)	(1,0)	(1,0)	(1,0)	(1,0)	(1,0)	(1,0)	(1,0)	(1,0)	
L1D -493>	(1,0)	(1,0)	(1,0)	(1,0)	(1,0)	(1,0)	(1,0)	(1,0)	(1,0)	(1,0)	(1,0)	(1,0)	(1,0)	(1,0)	(1,0)	(1,0)	
L1D -492>	(1,0)	(1,0)	(1,0)	(1,0)	(1,0)	(1,0)	(1,0)	(1,0)	(1,0)	(1,0)	(1,0)	(1,0)	(1,0)	(1,0)	(1,0)	(1,0)	
L1D -491>	(1,0)	(1,0)	(1,0)	(1,0)	(1,0)	(1,0)	(1,0)	(1,0)	(1,0)	(1,0)	(1,0)	(1,0)	(1,0)	(1,0)	(1,0)	(1,0)	
L1D -490>	(1,0)	(1,0)	(1,0)	(1,0)	(1,0)	(1,0)	(1,0)	(1,0)	(1,0)	(1,0)	(1,0)	(1,0)	(1,0)	(1,0)	(1,0)	(1,0)	
L1D -489>	(1,0)	(1,0)	(1,0)	(1,0)	(1,0)	(1,0)	(1,0)	(1,0)	(1,0)	(1,0)	(1,0)	(1,0)	(1,0)	(1,0)	(1,0)	(1,0)	
L1D -488>	(1,0)	(1,0)	(1,0)	(1,0)	(1,0)	(1,0)	(1,0)	(1,0)	(1,0)	(1,0)	(1,0)	(1,0)	(1,0)	(1,0)	(1,0)	(1,0)	
L1D -487>	(1,0)	(1,0)	(1,0)	(1,0)	(1,0)	(1,0)	(1,0)	(1,0)	(1,0)	(1,0)	(1,0)	(1,0)	(1,0)	(1,0)	(1,0)	(1,0)	
L1D -486>	(1,0)	(1,0)	(1,0)	(1,0)	(1,0)	(1,0)	(1,0)	(1,0)	(1,0)	(1,0)	(1,0)	(1,0)	(1,0)	(1,0)	(1,0)	(1,0)	
L1D -485>	(1,0)	(1,0)	(1,0)	(1,0)	(1,0)	(1,0)	(1,0)	(1,0)	(1,0)	(1,0)	(1,0)	(1,0)	(1,0)	(1,0)	(1,0)	(1,0)	
L1D -484>	(1,0)	(1,0)	(1,0)	(1,0)	(1,0)	(1,0)	(1,0)	(1,0)	(1,0)	(1,0)	(1,0)	(1,0)	(1,0)	(1,0)	(1,0)	(1,0)	
L1D -483>	(1,0)	(1,0)	(1,0)	(1,0)	(1,0)	(1,0)	(1,0)	(1,0)	(1,0)	(1,0)	(1,0)	(1,0)	(1,0)	(1,0)	(1,0)	(1,0)	
L1D -482>	(1,0)	(1,0)	(1,0)	(1,0)	(1,0)	(1,0)	(1,0)	(1,0)	(1,0)	(1,0)	(1,0)	(1,0)	(1,0)	(1,0)	(1,0)	(1,0)	
L1D -481>	(1,0)	(1,0)	(1,0)	(1,0)	(1,0)	(1,0)	(1,0)	(1,0)	(1,0)	(1,0)	(1,0)	(1,0)	(1,0)	(1,0)	(1,0)	(1,0)	
L1D -480>	(1,0)	(1,0)	(1,0)	(1,0)	(1,0)	(1,0)	(1,0)	(1,0)	(1,0)	(1,0)	(1,0)	(1,0)	(1,0)	(1,0)	(1,0)	(1,0)	
L1D -479>	(1,0)	(1,0)	(1,0)	(1,0)	(1,0)	(1,0)	(1,0)	(1,0)	(1,0)	(1,0)	(1,0)	(1,0)	(1,0)	(1,0)	(1,0)	(1,0)	
L1D -478>	(1,0)	(1,0)	(1,0)	(1,0)	(1,0)	(1,0)	(1,0)	(1,0)	(1,0)	(1,0)	(1,0)	(1,0)	(1,0)	(1,0)	(1,0)	(1,0)	
L1D -477>	(1,0)	(1,0)	(1,0)	(1,0)	(1,0)	(1,0)	(1,0)	(1,0)	(1,0)	(1,0)	(1,0)	(1,0)	(1,0)	(1,0)	(1,0)	(1,0)	
L1D -476>	(1,0)	(1,0)	(1,0)	(1,0)	(1,0)	(1,0)	(1,0)	(1,0)	(1,0)	(1,0)	(1,0)	(1,0)	(1,0)	(1,0)	(1,0)	(1,0)	
L1D -475>	(1,0)	(1,0)	(1,0)	(1,0)	(1,0)	(1,0)	(1,0)	(1,0)	(1,0)	(1,0)	(1,0)	(1,0)	(1,0)	(1,0)	(1,0)	(1,0)	
L1D -474>	(1,0)	(1,0)	(1,0)	(1,0)	(1,0)	(1,0)	(1,0)	(1,0)	(1,0)	(1,0)	(1,0)	(1,0)	(1,0)	(1,0)	(1,0)	(1,0)	
L1D -473>	(1,0)	(1,0)	(1,0)	(1,0)	(1,0)	(1,0)	(1,0)	(1,0)	(1,0)	(1,0)	(1,0)	(1,0)	(1,0)	(1,0)	(1,0)	(1,0)	
L1D -472>	(1,0)	(1,0)	(1,0)	(1,0)	(1,0)	(1,0)	(1,0)	(1,0)	(1,0)	(1,0)	(1,0)	(1,0)	(1,0)	(1,0)	(1,0)	(1,0)	
L1D -471>	(1,0)	(1,0)	(1,0)	(1,0)	(1,0)	(1,0)	(1,0)	(1,0)	(1,0)	(1,0)	(1,0)	(1,0)	(1,0)	(1,0)	(1,0)	(1,0)	
L1D -470>	(1,0)	(1,0)	(1,0)	(1,0)	(1,0)	(1,0)	(1,0)	(1,0)	(1,0)	(1,0)	(1,0)	(1,0)	(1,0)	(1,0)	(1,0)	(1,0)	
L1D -469>	(1,0)	(1,0)	(1,0)	(1,0)	(1,0)	(1,0)	(1,0)	(1,0)	(1,0)	(1,0)	(1,0)	(1,0)	(1,0)	(1,0)	(1,0)	(1,0)	
L1D -468>	(1,0)	(1,0)	(1,0)	(1,0)	(1,0)	(1,0)	(1,0)	(1,0)	(1,0)	(1,0)	(1,0)	(1,0)	(1,0)	(1,0)	(1,0)	(1,0)	
L1D -467>	(1,0)	(1,0)	(1,0)	(1,0)	(1,0)	(1,0)	(1,0)	(1,0)	(1,0)	(1,0)	(1,0)	(1,0)	(1,0)	(1,0)	(1,0)	(1,0)	
L1D -466>	(1,0)	(1,0)	(1,0)	(1,0)	(1,0)	(1,0)	(1,0)	(1,0)	(1,0)	(1,0)	(1,0)	(1,0)	(1,0)	(1,0)	(1,0)	(1,0)	
L1D -465>	(1,0)	(1,0)	(1,0)	(1,0)	(1,0)	(1,0)	(1,0)	(1,0)	(1,0)	(1,0)	(1,0)	(1,0)	(1,0)	(1,0)	(1,0)	(1,0)	
L1D -464>	(1,0)	(1,0)	(1,0)	(1,0)	(1,0)	(1,0)	(1,0)	(1,0)	(1,0)	(1,0)	(1,0)	(1,0)	(1,0)	(1,0)	(1,0)	(1,0)	
L1D -463>	(1,0)	(1,0)	(1,0)	(1,0)	(1,0)	(1,0)	(1,0)	(1,0)	(1,0)	(1,0)	(1,0)	(1,0)	(1,0)	(1,0)	(1,0)	(1,0)	
L1D -462>	(1,0)	(1,0)	(1,0)	(1,0)	(1,0)	(1,0)	(1,0)	(1,0)	(1,0)	(1,0)	(1,0)	(1,0)	(1,0)	(1,0)	(1,0)	(1,0)	
L1D -461>	(1,0)	(1,0)	(1,0)	(1,0)	(1,0)	(1,0)	(1,0)	(1,0)	(1,0)	(1,0)	(1,0)	(1,0)	(1,0)	(1,0)	(1,0)	(1,0)	
L1D -460>	(1,0)	(1,0)	(1,0)	(1,0)	(1,0)	(1,0)	(1,0)	(1,0)	(1,0)	(1,0)	(1,0)	(1,0)	(1,0)	(1,0)	(1,0)	(1,0)	
L1D -459>	(1,0)	(1,0)	(1,0)	(1,0)	(1,0)	(1,0)	(1,0)	(1,0)	(1,0)	(1,0)	(1,0)	(1,0)	(1,0)	(1,0)	(1,0)	(1,0)	
L1D -458>	(1,0)	(1,0)	(1,0)	(1,0)	(1,0)	(1,0)	(1,0)	(1,0)	(1,0)	(1,0)	(1,0)	(1,0)	(1,0)	(1,0)	(1,0)	(1,0)	
L1D -457>	(1,0)	(1,0)	(1,0)	(1,0)	(1,0)	(1,0)	(1,0)	(1,0)	(1,0)	(1,0)	(1,0)	(1,0)	(1,0)	(1,0)	(1,0)	(1,0)	
L1D -456>	(1,0)	(1,0)	(1,0)	(1,0)	(1,0)	(1,0)	(1,0)	(1,0)	(1,0)	(1,0)	(1,0)	(1,0)	(1,0)	(1,0)	(1,0)	(1,0)	
L1D -455>	(1,0)	(1,0)	(1,0)	(1,0)	(1,0)	(1,0)	(1,0)	(1,0)	(1,0)	(1,0)	(1,0)	(1,0)	(1,0)	(1,0)	(1,0)	(1,0)	
L1D -454>	(1,0)	(1,0)	(1,0)	(1,0)	(1,0)	(1,0)	(1,0)	(1,0)	(1,0)	(1,0)	(1,0)	(1,0)	(1,0)	(1,0)	(1,0)	(1,0)	
L1D -453>	(1,0)	(1,0)	(1,0)	(1,0)	(1,0)	(1,0)	(1,0)	(1,0)	(1,0)	(1,0)	(1,0)	(1,0)	(1,0)	(1,0)	(1,0)	(1,0)	
L1D -452>	(1,0)	(1,0)	(1,0)	(1,0)	(1,0)	(1,0)	(1,0)	(1,0)	(1,0)	(1,0)	(1,0)	(1,0)	(1,0)	(1,0)	(1,0)	(1,0)	
L1D -451>	(1,0)	(1,0)	(1,0)	(1,0)	(1,0)	(1,0)	(1,0)	(1,0)	(1,0)	(1,0)	(1,0)	(1,0)	(1,0)	(1,0)	(1,0)	(1,0)	
L1D -450>	(1,0)	(1,0)	(1,0)	(1,0)	(1,0)	(1,0)	(1,0)	(1,0)	(1,0)	(1,0)	(1,0)	(1,0)	(1,0)	(1,0)	(1,0)	(1,0)	
L1D -449>	(1,0)	(1,0)	(1,0)	(1,0)	(1,0)	(1,0)	(1,0)	(1,0)	(1,0)	(1,0)	(1,0)	(1,0)	(1,0)	(1,0)	(1,0)	(1,0)	
L1D -448>	(1,0)	(1,0)	(1,0)	(1,0)	(1,0)	(1,0)	(1,0)	(1,0)	(1,0)	(1,0)	(1,0)	(1,0)	(1,0)	(1,0)	(1,0)	(1,0)	
L1D -447>	(1,0)	(1,0)	(1,0)	(1,0)	(1,0)	(1,0)	(1,0)	(1,0)	(1,0)	(1,0)	(1,0)	(1,0)	(1,0)	(1,0)	(1,0)	(1,0)	
L1D -446>	(1,0)	(1,0)	(1,0)	(1,0)	(1,0)	(1,0)	(1,0)	(1,0)	(1,0)	(1,0)	(1,0)	(1,0)	(1,0)	(1,0)	(1,0)	(1,0)	
L1D -445>	(1,0)	(1,0)	(1,0)	(1,0)	(1,0)	(1,0)	(1,0)	(1,0)	(1,0)	(1,0)	(1,0)	(1,0)	(1,0)	(1,0)	(1,0)	(1,0)	
L1D -444>	(1,0)	(1,0)	(1,0)	(1,0)	(1,0)	(1,0)	(1,0)	(1,0)	(1,0)	(1,0)	(1,0)	(1,0)	(1,0)	(1,0)	(1,0)	(1,0)	
L1D -443>	(1,0)	(1,0)	(1,0)	(1,0)	(1,0)	(1,0)	(1,0)	(1,0)	(1,0)	(1,0)	(1,0)	(1,0)	(1,0)	(1,0)	(1,0)	(1,0)	
L1D -442>	(216,1)	(1,0)	(1,0)	(1,0)	(1,0)	(1,0)	(1,0)	(1,0)	(1,0)	(1,0)	(1,0)	(1,0)	(1,0)	(1,0)	(1,0)	(1,0)	
L1D -441>	(1,0)	(1,0)	(1,0)	(1,0)	(1,0)	(1,0)	(1,0)	(1,0)	(1,0)	(1,0)	(1,0)	(1,0)	(1,0)	(1,0)	(1,0)	(1,0)	
L1D -440>	(1,0)	(1,0)	(1,0)	(1,0)	(1,0)	(1,0)	(1,0)	(1,0)	(1,0)	(1,0)	(1,0)	(1,0)	(1,0)	(1,0)	(1,0)	(1,0)	
L1D -439>	(1,0)	(1,0)	(1,0)	(1,0)	(1,0)	(1,0)	(1,0)	(1,0)	(1,0)	(1,0)	(1,0)	(1,0)	(1,0)	(1,0)	(1,0)	(1,0)	
L1D -438>	(1,0)	(1,0)	(1,0)	(1,0)	(1,0)	(1,0)	(1,0)	(1,0)	(1,0)	(1,0)	(1,0)	(1,0)	(1,0)	(1,0)	(1,0)	(1,0)	
L1D -437>	(1,0)	(1,0)	(1,0)	(1,0)	(1,0)	(1,0)	(1,0)	(1,0)	(1,0)	(1,0)	(1,0)	(1,0)	(1,0)	(1,0)	(1,0)	(1,0)	
L1D -436>	(436,1)	(1,0)	(1,0)	(1,0)	(1,0)	(1,0)	(1,0)	(1,0)	(1,0)	(1,0)	(1,0)	(1,0)	(1,0)	(1,0)	(1,0)	(1,0)	
L1D -435>	(1,70)	(1,0)	(1,0)	(1,0)	(1,0)	(1,0)	(1,0)	(1,0)	(1,0)	(1,0)	(1,0)	(1,0)	(1,0)	(1,0)	(1,0)	(1,0)	
L1D -434>	(1,7)	(1,0)	(1,0)	(1,0)	(1,0)	(1,0)	(1,0)	(1,0)	(1,0)	(1,0)	(1,0)	(1,0)	(1,0)	(1,0)	(1,0)	(1,0)	
L1D -433>	(1,115)	(1,0)	(1,0)	(1,0)	(1,0)	(1,0)	(1,0)	(1,0)	(1,0)	(1,0)	(1,0)	(1,0)	(1,0)	(1,0)	(1,0)	(1,0)	
L1D -432>	(1,0)	(1,0)	(1,0)	(1,0)	(1,0)	(1,0)	(1,0)	(1,0)	(1,0)	(1,0)	(1,0)	(1,0)	(1,0)	(1,0)	(1,0)	(1,0)	
L1D -431>	(1,0)	(1,0)	(1,0)	(1,0)	(1,0)	(1,0)	(1,0)	(1,0)	(1,0)	(1,0)	(1,0)	(1,0)	(1,0)	(1,0)	(1,0)	(1,0)	
L1D -430>	(1,0)	(1,0)	(1,0)	(1,0)	(1,0)	(1,0)	(1,0)	(1,0)	(1,0)	(1,0)	(1,0)	(1,0)	(1,0)	(1,0)	(1,0)	(1,0)	
L1D -429>	(1,0)	(1,0)	(1,0)	(1,0)	(1,0)	(1,0)	(1,0)	(1,0)	(1,0)	(1,0)	(1,0)	(1,0)	(1,0)	(1,0)	(1,0)	(1,0)	
L1D -428>	(0,3)	(1,1)	(384,1)	(1,0)	(1,0)	(1,0)	(1,0)	(1,0)	(1,0)	(1,0)	(1,0)	(1,0)	(1,0)	(1,0)	(1,0)	(1,0)	
L1D -427>	(1,3)	(-1,1)	(1,0)	(1,0)	(1,0)	(1,0)	(1,0)	(1,0)	(1,0)	(1,0)	(1,0)	(1,0)	(1,0)	(1,0)	(1,0)	(1,0)	
L1D -426>	(-1,1)	(1,9)	(0,77)	(1,0)	(1,0)	(1,0)	(1,0)	(1,0)	(1,0)	(1,0)	(1,0)	(1,0)	(1,0)	(1,0)	(1,0)	(1,0)	
L1D -425>	(-1,10)	(1,0)	(1,0)	(1,0)	(1,0)	(1,0)	(1,0)	(1,0)	(1,0)	(1,0)	(1,0)	(1,0)	(1,0)	(1,0)	(1,0)	(1,0)	
L1D -424>	(0,2)	(1,1)	(1,0)	(1,0)	(1,0)	(1,0)	(1,0)	(1,0)	(1,0)	(1,0)	(1,0)	(1,0)	(1,0)	(1,0)	(1,0)	(1,0)	
L1D -423>	(1,1)	(1,0)	(1,0)	(1,0)	(1,0)	(1,0)	(1,0)	(1,0)	(1,0)	(1,0)	(1,0)	(1,0)	(1,0)	(1,0)	(1,0)	(1,0)	
L1D -422>	(1,2)	(-1,1)	(214,84)	(215,3)	(212,0)	(222,0)	(216,0)	(1,0)	(1,0)	(1,0)	(1,0)	(1,0)	(1,0)	(1,0)	(1,0)	(1,0)	
L1D -421>	(-1,12)	(1,0)	(1,0)	(1,0)	(1,0)	(1,0)	(1,0)	(1,0)	(1,0)	(1,0)	(1,0)	(1,0)	(1,0)	(1,0)	(1,0)	(1,0)	
L1D -420>	(214,1)	(1,0)	(1,0)	(1,0)	(1,0)	(1,0)	(1,0)	(1,0)	(1,0)	(1,0)	(1,0)	(1,0)	(1,0)	(1,0)	(1,0)	(1,0)	
L1D -419>	(1,0)	(1,0)	(1,0)	(1,0)	(1,0)	(1,0)	(1,0)	(1,0)	(1,0)	(1,0)	(1,0)	(1,0)	(1,0)	(1,0)	(1,0)	(1,0)	
L1D -418>	(3,79)	(4,11)	(1,0)	(1,0)	(1,0)	(1,0)	(1,0)	(1,0)	(1,0)	(1,0)	(1,0)	(1,0)	(1,0)	(1,0)	(1,0)	(1,0)	
L1D -417>	(1,0)	(1,0)	(1,0)	(1,0)	(1,0)	(1,0)	(1,0)	(1,0)	(1,0)	(1,0)	(1,0)	(1,0)	(1,0)	(1,0)	(1,0)	(1,0)	
L1D -416>	(424,1)	(1,2)	(1,0)	(1,0)	(1,0)	(1,0)	(1,0)	(1,0)	(1,0)	(1,0)	(1,0)	(1,0)	(1,0)	(1,0)	(1,0)	(1,0)	
L1D -415>	(1,112)	(-3,13)	(1,0)	(1,0)	(1,0)	(1,0)	(1,0)	(1,0)	(1,0)	(1,0)	(1,0)	(1,0)	(1,0)	(1,0)	(1,0)	(1,0)	
L1D -414>	(1,95)	(-4,0)	(1,0)	(1,0)	(1,0)	(1,0)	(1,0)	(1,0)	(1,0)	(1,0)	(1,0)	(1,0)	(1,0)	(1,0)	(1,0)	(1,0)	
L1D -413>	(1,0)	(1,0)	(1,0)	(1,0)	(1,0)	(1,0)	(1,0)	(1,0)	(1,0)	(1,0)	(1,0)	(1,0)	(1,0)	(1,0)	(1,0)	(1,0)	
L1D -412>	(0,1)	(46,1)	(1,0)	(1,0)	(1,0)	(1,0)	(1,0)	(1,0)	(1,0)	(1,0)	(1,0)	(1,0)	(1,0)	(1,0)	(1,0)	(1,0)	
L1D -411>	(1,0)	(1,0)	(1,0)	(1,0)	(1,0)	(1,0)	(1,0)	(1,0)	(1,0)	(1,0)	(1,0)	(1,0)	(1,0)	(1,0)	(1,0)	(1,0)	
L1D -410>	(1,0)	(1,0)	(1,0)	(1,0)	(1,0)	(1,0)	(1,0)	(1,0)	(1,0)	(1,0)	(1,0)	(1,0)	(1,0)	(1,0)	(1,0)	(1,0)	
L1D -409>	(1,0)	(1,0)	(1,0)	(1,0)	(1,0)	(1,0)	(1,0)	(1,0)	(1,0)	(1,0)	(1,0)	(1,0)	(1,0)	(1,0)	(1,0)	(1,0)	
L1D -408>	(1,0)	(1,0)	(1,0)	(1,0)	(1,0)	(1,0)	(1,0)	(1,0)	(1,0)	(1,0)	(1,0)	(1,0)	(1,0)	(1,0)	(1,0)	(1,0)	
L1D -407>	(1,0)	(1,0)	(1,0)	(1,0)	(1,0)	(1,0)	(1,0)	(1,0)	(1,0)	(1,0)	(1,0)	(1,0)	(1,0)	(1,0)	(1,0)	(1,0)	
L1D -406>	(1,0)	(1,0)	(1,0)	(1,0)	(1,0)	(1,0)	(1,0)	(1,0)	(1,0)	(1,0)	(1,0)	(1,0)	(1,0)	(1,0)	(1,0)	(1,0)	
L1D -405>	(355,46)	(165,11)	(181,24)	(321,70)	(91,10)	(365,10)	(213,62)	(83,9)	(403,1)	(85,1)	(363,1)	(1,0)	(1,0)	(1,0)	(1,0)	(1,0)	
L1D -404>	(1,0)	(1,0)	(1,0)	(1,0)	(1,0)	(1,0)	(1,0)	(1,0)	(1,0)	(1,0)	(1,0)	(1,0)	(1,0)	(1,0)	(1,0)	(1,0)	
L1D -403>	(175,2)	(213,1)	(1,0)	(1,0)	(1,0)	(1,0)	(1,0)	(1,0)	(1,0)	(1,0)	(1,0)	(1,0)	(1,0)	(1,0)	(1,0)	(1,0)	
L1D -402>	(0,1)	(388,42)	(396,61)	(400,17)	(354,11)	(1,0)	(1,0)	(1,0)	(1,0)	(1,0)	(1,0)	(1,0)	(1,0)	(1,0)	(1,0)	(1,0)	
L1D -401>	(175,8)	(1,0)	(1,0)	(1,0)	(1,0)	(1,0)	(1,0)	(1,0)	(1,0)	(1,0)	(1,0)	(1,0)	(1,0)	(1,0)	(1,0)	(1,0)	
L1D -400>	(388,24)	(0,1)	(148,29)	(354,42)	(42,1)	(1,0)	(1,0)	(1,0)	(1,0)	(1,0)	(1,0)	(1,0)	(1,0)	(1,0)	(1,0)	(1,0)	
L1D -399>	(395,43)	(175,5)	(339,20)	(365,2)	(1,0)	(1,0)	(1,0)	(1,0)	(1,0)	(1,0)	(1,0)	(1,0)	(1,0)	(1,0)	(1,0)	(1,0)	
L1D -398>	(-37,35)	(294,20)	(-35,15)	(1,0)	(1,0)	(1,0)	(1,0)	(1,0)	(1,0)	(1,0)	(1,0)	(1,0)	(1,0)	(1,0)	(1,0)	(1,0)	
L1D -397>	(1,0)	(1,0)	(1,0)	(1,0)	(1,0)	(1,0)	(1,0)	(1,0)	(1,0)	(1,0)	(1,0)	(1,0)	(1,0)	(1,0)	(1,0)	(1,0)	
L1D -396>	(388,127)	(0,3)	(42,1)	(1,0)	(1,0)	(1,0)	(1,0)	(1,0)	(1,0)	(1,0)	(1,0)	(1,0)	(1,0)	(1,0)	(1,0)	(1,0)	
L1D -395>	(339,6)	(175,38)	(397,1)	(1,0)	(1,0)	(1,0)	(1,0)	(1,0)	(1,0)	(1,0)	(1,0)	(1,0)	(1,0)	(1,0)	(1,0)	(1,0)	
L1D -394>	(1,0)	(1,0)	(1,0)	(1,0)	(1,0)	(1,0)	(1,0)	(1,0)	(1,0)	(1,0)	(1,0)	(1,0)	(1,0)	(1,0)	(1,0)	(1,0)	
L1D -393>	(8,49)	(1,0)	(1,0)	(1,0)	(1,0)	(1,0)	(1,0)	(1,0)	(1,0)	(1,0)	(1,0)	(1,0)	(1,0)	(1,0)	(1,0)	(1,0)	
L1D -392>	(70,3)	(0,2)	(166,12)	(1,0)	(1,0)	(1,0)	(1,0)	(1,0)	(1,0)	(1,0)	(1,0)	(1,0)	(1,0)	(1,0)	(1,0)	(1,0)	
L1D -391>	(20,77)	(1,0)	(1,0)	(1,0)	(1,0)	(1,0)	(1,0)	(1,0)	(1,0)	(1,0)	(1,0)	(1,0)	(1,0)	(1,0)	(1,0)	(1,0)	
L1D -390>	(26,108)	(0,1)	(-76,1)	(1,0)	(1,0)	(1,0)	(1,0)	(1,0)	(1,0)	(1,0)	(1,0)	(1,0)	(1,0)	(1,0)	(1,0)	(1,0)	
L1D -389>	(1,0)	(1,0)	(1,0)	(1,0)	(1,0)	(1,0)	(1,0)	(1,0)	(1,0)	(1,0)	(1,0)	(1,0)	(1,0)	(1,0)	(1,0)	(1,0)	
L1D -388>	(0,1)	(1,27)	(354,8)	(350,20)	(1,0)	(1,0)	(1,0)	(1,0)	(1,0)	(1,0)	(1,0)	(1,0)	(1,0)	(1,0)	(1,0)	(1,0)	
L1D -387>	(349,26)	(1,0)	(1,0)	(1,0)	(1,0)	(1,0)	(1,0)	(1,0)	(1,0)	(1,0)	(1,0)	(1,0)	(1,0)	(1,0)	(1,0)	(1,0)	
L1D -386>	(246,24)	(0,98)	(118,1)	(252,0)	(1,0)	(1,0)	(1,0)	(1,0)	(1,0)	(1,0)	(1,0)	(1,0)	(1,0)	(1,0)	(1,0)	(1,0)	
L1D -385>	(1,0)	(1,0)	(1,0)	(1,0)	(1,0)	(1,0)	(1,0)	(1,0)	(1,0)	(1,0)	(1,0)	(1,0)	(1,0)	(1,0)	(1,0)	(1,0)	
L1D -384>	(72,10)	(0,3)	(220,1)	(1,0)	(1,0)	(1,0)	(1,0)	(1,0)	(1,0)	(1,0)	(1,0)	(1,0)	(1,0)	(1,0)	(1,0)	(1,0)	
L1D -383>	(1,0)	(1,0)	(1,0)	(1,0)	(1,0)	(1,0)	(1,0)	(1,0)	(1,0)	(1,0)	(1,0)	(1,0)	(1,0)	(1,0)	(1,0)	(1,0)	
L1D -382>	(0,3)	(30,5)	(118,17)	(1,0)	(1,0)	(1,0)	(1,0)	(1,0)	(1,0)	(1,0)	(1,0)	(1,0)	(1,0)	(1,0)	(1,0)	(1,0)	
L1D -381>	(1,0)	(1,0)	(1,0)	(1,0)	(1,0)	(1,0)	(1,0)	(1,0)	(1,0)	(1,0)	(1,0)	(1,0)	(1,0)	(1,0)	(1,0)	(1,0)	
L1D -380>	(294,59)	(292,22)	(0,1)	(1,0)	(1,0)	(1,0)	(1,0)	(1,0)	(1,0)	(1,0)	(1,0)	(1,0)	(1,0)	(1,0)	(1,0)	(1,0)	
L1D -379>	(1,0)	(1,0)	(1,0)	(1,0)	(1,0)	(1,0)	(1,0)	(1,0)	(1,0)	(1,0)	(1,0)	(1,0)	(1,0)	(1,0)	(1,0)	(1,0)	
L1D -378>	(294,21)	(42,10)	(1,0)	(1,0)	(1,0)	(1,0)	(1,0)	(1,0)	(1,0)	(1,0)	(1,0)	(1,0)	(1,0)	(1,0)	(1,0)	(1,0)	
L1D -377>	(341,104)	(0,1)	(166,4)	(1,0)	(1,0)	(1,0)	(1,0)	(1,0)	(1,0)	(1,0)	(1,0)	(1,0)	(1,0)	(1,0)	(1,0)	(1,0)	
L1D -376>	(1,0)	(1,0)	(1,0)	(1,0)	(1,0)	(1,0)	(1,0)	(1,0)	(1,0)	(1,0)	(1,0)	(1,0)	(1,0)	(1,0)	(1,0)	(1,0)	
L1D -375>	(1,0)	(1,0)	(1,0)	(1,0)	(1,0)	(1,0)	(1,0)	(1,0)	(1,0)	(1,0)	(1,0)	(1,0)	(1,0)	(1,0)	(1,0)	(1,0)	
L1D -374>	(1,0)	(1,0)	(1,0)	(1,0)	(1,0)	(1,0)	(1,0)	(1,0)	(1,0)	(1,0)	(1,0)	(1,0)	(1,0)	(1,0)	(1,0)	(1,0)	
L1D -373>	(1,0)	(1,0)	(1,0)	(1,0)	(1,0)	(1,0)	(1,0)	(1,0)	(1,0)	(1,0)	(1,0)	(1,0)	(1,0)	(1,0)	(1,0)	(1,0)	
L1D -372>	(-21,92)	(214,0)	(1,0)	(1,0)	(1,0)	(1,0)	(1,0)	(1,0)	(1,0)	(1,0)	(1,0)	(1,0)	(1,0)	(1,0)	(1,0)	(1,0)	
L1D -371>	(1,0)	(1,0)	(1,0)	(1,0)	(1,0)	(1,0)	(1,0)	(1,0)	(1,0)	(1,0)	(1,0)	(1,0)	(1,0)	(1,0)	(1,0)	(1,0)	
L1D -370>	(234,65)	(0,0)	(1,0)	(1,0)	(1,0)	(1,0)	(1,0)	(1,0)	(1,0)	(1,0)	(1,0)	(1,0)	(1,0)	(1,0)	(1,0)	(1,0)	
L1D -369>	(1,0)	(1,0)	(1,0)	(1,0)	(1,0)	(1,0)	(1,0)	(1,0)	(1,0)	(1,0)	(1,0)	(1,0)	(1,0)	(1,0)	(1,0)	(1,0)	
L1D -368>	(366,22)	(96,11)	(238,12)	(166,1)	(1,0)	(1,0)	(1,0)	(1,0)	(1,0)	(1,0)	(1,0)	(1,0)	(1,0)	(1,0)	(1,0)	(1,0)	
L1D -367>	(1,0)	(1,0)	(1,0)	(1,0)	(1,0)	(1,0)	(1,0)	(1,0)	(1,0)	(1,0)	(1,0)	(1,0)	(1,0)	(1,0)	(1,0)	(1,0)	
L1D -366>	(1,0)	(1,0)	(1,0)	(1,0)	(1,0)	(1,0)	(1,0)	(1,0)	(1,0)	(1,0)	(1,0)	(1,0)	(1,0)	(1,0)	(1,0)	(1,0)	
L1D -365>	(3,9)	(1,0)	(1,0)	(1,0)	(1,0)	(1,0)	(1,0)	(1,0)	(1,0)	(1,0)	(1,0)	(1,0)	(1,0)	(1,0)	(1,0)	(1,0)	
L1D -364>	(268,119)	(-26,9)	(324,5)	(44,0)	(30,1)	(1,0)	(1,0)	(1,0)	(1,0)	(1,0)	(1,0)	(1,0)	(1,0)	(1,0)	(1,0)	(1,0)	
L1D -363>	(213,4)	(83,1)	(1,0)	(1,0)	(1,0)	(1,0)	(1,0)	(1,0)	(1,0)	(1,0)	(1,0)	(1,0)	(1,0)	(1,0)	(1,0)	(1,0)	
L1D -362>	(42,3)	(68,1)	(1,34)	(360,1)	(1,0)	(1,0)	(1,0)	(1,0)	(1,0)	(1,0)	(1,0)	(1,0)	(1,0)	(1,0)	(1,0)	(1,0)	
L1D -361>	(351,3)	(1,46)	(95,10)	(265,11)	(167,11)	(1,0)	(1,0)	(1,0)	(1,0)	(1,0)	(1,0)	(1,0)	(1,0)	(1,0)	(1,0)	(1,0)	
L1D -360>	(298,78)	(152,0)	(0,2)	(296,26)	(306,0)	(234,0)	(258,0)	(166,0)	(260,2)	(370,20)	(174,1)	(268,0)	(252,1)	(267,1)	(1,0)	(1,0)	
L1D -359>	(2,27)	(-6,1)	(1,0)	(1,0)	(1,0)	(1,0)	(1,0)	(1,0)	(1,0)	(1,0)	(1,0)	(1,0)	(1,0)	(1,0)	(1,0)	(1,0)	
L1D -358>	(16,0)	(356,0)	(-10,0)	(70,72)	(234,9)	(42,0)	(208,0)	(148,2)	(22,0)	(134,4)	(1,0)	(1,0)	(1,0)	(1,0)	(1,0)	(1,0)	
L1D -357>	(1,0)	(1,0)	(1,0)	(1,0)	(1,0)	(1,0)	(1,0)	(1,0)	(1,0)	(1,0)	(1,0)	(1,0)	(1,0)	(1,0)	(1,0)	(1,0)	
L1D -356>	(-34,7)	(262,14)	(360,19)	(-42,2)	(70,3)	(-35,27)	(42,32)	(-37,27)	(72,1)	(1,0)	(1,0)	(1,0)	(1,0)	(1,0)	(1,0)	(1,0)	
L1D -355>	(1,0)	(1,0)	(1,0)	(1,0)	(1,0)	(1,0)	(1,0)	(1,0)	(1,0)	(1,0)	(1,0)	(1,0)	(1,0)	(1,0)	(1,0)	(1,0)	
L1D -354>	(230,24)	(336,30)	(250,18)	(240,12)	(154,65)	(268,6)	(396,18)	(278,41)	(292,2)	(148,16)	(168,1)	(242,12)	(-42,1)	(388,13)	(398,2)	(378,1)	
L1D -353>	(1,0)	(1,0)	(1,0)	(1,0)	(1,0)	(1,0)	(1,0)	(1,0)	(1,0)	(1,0)	(1,0)	(1,0)	(1,0)	(1,0)	(1,0)	(1,0)	
L1D -352>	(220,99)	(252,0)	(30,2)	(147,0)	(32,1)	(88,0)	(22,0)	(264,0)	(254,1)	(260,0)	(14,2)	(38,7)	(218,0)	(142,0)	(1,0)	(1,0)	
L1D -351>	(319,1)	(1,0)	(1,0)	(1,0)	(1,0)	(1,0)	(1,0)	(1,0)	(1,0)	(1,0)	(1,0)	(1,0)	(1,0)	(1,0)	(1,0)	(1,0)	
L1D -350>	(1,126)	(30,2)	(242,1)	(74,3)	(12,1)	(1,0)	(1,0)	(1,0)	(1,0)	(1,0)	(1,0)	(1,0)	(1,0)	(1,0)	(1,0)	(1,0)	
L1D -349>	(313,3)	(83,2)	(193,1)	(73,20)	(1,0)	(1,0)	(1,0)	(1,0)	(1,0)	(1,0)	(1,0)	(1,0)	(1,0)	(1,0)	(1,0)	(1,0)	
L1D -348>	(330,7)	(160,3)	(16,2)	(134,1)	(258,7)	(28,10)	(347,9)	(1,0)	(1,0)	(1,0)	(1,0)	(1,0)	(1,0)	(1,0)	(1,0)	(1,0)	
L1D -347>	(174,14)	(385,6)	(2,30)	(172,54)	(4,9)	(346,4)	(193,2)	(347,1)	(-1,6)	(313,3)	(1,10)	(3,22)	(344,77)	(83,3)	(301,1)	(181,1)	
L1D -346>	(345,124)	(156,4)	(342,18)	(3,28)	(343,44)	(254,63)	(347,3)	(174,99)	(172,16)	(173,3)	(344,1)	(1,23)	(351,0)	(9,0)	(1,0)	(1,0)	
L1D -345>	(254,32)	(3,27)	(-1,4)	(342,41)	(85,1)	(345,124)	(346,49)	(172,35)	(169,25)	(171,6)	(2,24)	(344,17)	(1,15)	(347,2)	(311,1)	(173,36)	
L1D -344>	(174,35)	(3,2)	(171,107)	(170,9)	(168,41)	(172,69)	(2,4)	(-1,73)	(343,120)	(169,33)	(341,8)	(173,59)	(347,13)	(4,42)	(346,3)	(1,13)	
L1D -343>	(346,21)	(-3,32)	(343,4)	(171,54)	(172,75)	(342,90)	(-1,104)	(-2,12)	(169,3)	(1,59)	(345,45)	(-4,0)	(2,0)	(170,0)	(168,0)	(173,0)	
L1D -342>	(0,0)	(66,6)	(-4,64)	(345,29)	(-3,0)	(-1,28)	(5,0)	(169,1)	(343,0)	(172,6)	(346,12)	(168,0)	(170,42)	(344,0)	(173,1)	(-2,0)	
L1D -341>	(342,2)	(274,7)	(172,61)	(343,8)	(173,1)	(-1,64)	(-2,12)	(170,4)	(169,13)	(345,2)	(171,3)	(168,3)	(1,2)	(-4,1)	(349,0)	(1,0)	
L1D -340>	(343,12)	(168,21)	(171,42)	(169,71)	(175,0)	(341,2)	(-4,3)	(-1,7)	(1,0)	(44,5)	(344,3)	(172,14)	(1,0)	(1,0)	(1,0)	(1,0)	
L1D -339>	(170,1)	(336,35)	(397,8)	(154,80)	(354,40)	(148,46)	(399,6)	(1,0)	(1,0)	(1,0)	(1,0)	(1,0)	(1,0)	(1,0)	(1,0)	(1,0)	
L1D -338>	(158,12)	(134,13)	(66,13)	(24,33)	(-1,1)	(106,2)	(-12,1)	(244,1)	(342,1)	(256,1)	(18,76)	(-14,15)	(308,6)	(322,10)	(8,3)	(2,0)	
L1D -337>	(-1,51)	(339,21)	(399,106)	(213,11)	(172,28)	(-2,1)	(1,2)	(-172,1)	(148,1)	(1,0)	(1,0)	(1,0)	(1,0)	(1,0)	(1,0)	(1,0)	
L1D -336>	(212,43)	(192,4)	(154,41)	(72,58)	(224,23)	(278,18)	(310,3)	(158,70)	(42,4)	(148,5)	(254,1)	(228,1)	(-42,1)	(68,64)	(112,10)	(1,0)	
L1D -335>	(-2,4)	(172,18)	(-1,20)	(1,0)	(1,0)	(1,0)	(1,0)	(1,0)	(1,0)	(1,0)	(1,0)	(1,0)	(1,0)	(1,0)	(1,0)	(1,0)	
L1D -334>	(14,6)	(-12,1)	(66,33)	(1,0)	(1,0)	(1,0)	(1,0)	(1,0)	(1,0)	(1,0)	(1,0)	(1,0)	(1,0)	(1,0)	(1,0)	(1,0)	
L1D -333>	(1,0)	(1,0)	(1,0)	(1,0)	(1,0)	(1,0)	(1,0)	(1,0)	(1,0)	(1,0)	(1,0)	(1,0)	(1,0)	(1,0)	(1,0)	(1,0)	
L1D -332>	(18,103)	(334,82)	(274,0)	(242,0)	(230,0)	(222,22)	(220,0)	(2,0)	(260,1)	(250,1)	(238,0)	(346,1)	(1,0)	(1,0)	(1,0)	(1,0)	
L1D -331>	(1,0)	(1,0)	(1,0)	(1,0)	(1,0)	(1,0)	(1,0)	(1,0)	(1,0)	(1,0)	(1,0)	(1,0)	(1,0)	(1,0)	(1,0)	(1,0)	
L1D -330>	(172,0)	(116,11)	(10,9)	(212,81)	(8,0)	(-22,0)	(276,1)	(328,0)	(244,3)	(38,0)	(16,49)	(324,3)	(214,6)	(-26,4)	(114,5)	(228,3)	
L1D -329>	(3,10)	(8,2)	(10,4)	(4,1)	(6,1)	(-1,1)	(1,0)	(1,0)	(1,0)	(1,0)	(1,0)	(1,0)	(1,0)	(1,0)	(1,0)	(1,0)	
L1D -328>	(264,7)	(96,121)	(214,60)	(8,38)	(270,10)	(100,13)	(90,1)	(1,0)	(1,0)	(1,0)	(1,0)	(1,0)	(1,0)	(1,0)	(1,0)	(1,0)	
L1D -327>	(1,0)	(1,0)	(1,0)	(1,0)	(1,0)	(1,0)	(1,0)	(1,0)	(1,0)	(1,0)	(1,0)	(1,0)	(1,0)	(1,0)	(1,0)	(1,0)	
L1D -326>	(1,27)	(106,102)	(-30,1)	(116,0)	(218,4)	(-4,0)	(-3,4)	(120,96)	(2,10)	(226,4)	(1,0)	(1,0)	(1,0)	(1,0)	(1,0)	(1,0)	
L1D -325>	(1,95)	(1,0)	(1,0)	(1,0)	(1,0)	(1,0)	(1,0)	(1,0)	(1,0)	(1,0)	(1,0)	(1,0)	(1,0)	(1,0)	(1,0)	(1,0)	
L1D -324>	(104,0)	(284,0)	(350,0)	(286,32)	(224,91)	(10,16)	(114,14)	(238,3)	(-40,4)	(1,0)	(1,0)	(1,0)	(1,0)	(1,0)	(1,0)	(1,0)	
L1D -323>	(2,98)	(1,0)	(1,0)	(1,0)	(1,0)	(1,0)	(1,0)	(1,0)	(1,0)	(1,0)	(1,0)	(1,0)	(1,0)	(1,0)	(1,0)	(1,0)	
L1D -322>	(280,10)	(74,29)	(314,76)	(197,126)	(286,1)	(294,3)	(-70,2)	(96,22)	(206,1)	(254,3)	(228,3)	(202,12)	(-30,15)	(82,3)	(302,77)	(222,6)	
L1D -321>	(215,17)	(1,0)	(1,0)	(1,0)	(1,0)	(1,0)	(1,0)	(1,0)	(1,0)	(1,0)	(1,0)	(1,0)	(1,0)	(1,0)	(1,0)	(1,0)	
L1D -320>	(78,18)	(178,60)	(-16,16)	(-10,1)	(-14,4)	(-28,3)	(280,4)	(214,13)	(290,87)	(-32,23)	(228,29)	(222,26)	(-44,8)	(6,4)	(172,6)	(318,15)	
L1D -319>	(351,2)	(167,12)	(317,3)	(1,0)	(1,0)	(1,0)	(1,0)	(1,0)	(1,0)	(1,0)	(1,0)	(1,0)	(1,0)	(1,0)	(1,0)	(1,0)	
L1D -318>	(254,3)	(-42,4)	(316,8)	(216,0)	(142,0)	(-10,15)	(352,17)	(252,74)	(228,16)	(30,9)	(218,4)	(360,3)	(22,15)	(28,3)	(24,2)	(200,0)	
L1D -317>	(351,3)	(265,33)	(361,1)	(1,0)	(1,0)	(1,0)	(1,0)	(1,0)	(1,0)	(1,0)	(1,0)	(1,0)	(1,0)	(1,0)	(1,0)	(1,0)	
L1D -316>	(22,8)	(238,2)	(-40,2)	(354,8)	(122,60)	(28,52)	(82,5)	(-14,2)	(100,2)	(30,1)	(115,1)	(-34,1)	(244,12)	(-22,4)	(198,10)	(324,6)	
L1D -315>	(1,0)	(1,0)	(1,0)	(1,0)	(1,0)	(1,0)	(1,0)	(1,0)	(1,0)	(1,0)	(1,0)	(1,0)	(1,0)	(1,0)	(1,0)	(1,0)	
L1D -314>	(272,68)	(234,2)	(291,1)	(242,1)	(-2,1)	(223,0)	(28,3)	(322,0)	(318,1)	(-24,0)	(106,0)	(259,7)	(306,1)	(84,0)	(206,2)	(298,0)	
L1D -313>	(-4,4)	(5,3)	(1,0)	(1,0)	(1,0)	(1,0)	(1,0)	(1,0)	(1,0)	(1,0)	(1,0)	(1,0)	(1,0)	(1,0)	(1,0)	(1,0)	
L1D -312>	(246,1)	(305,93)	(210,57)	(-72,31)	(140,0)	(94,3)	(220,8)	(303,3)	(252,0)	(122,0)	(1,0)	(1,0)	(1,0)	(1,0)	(1,0)	(1,0)	
L1D -311>	(1,107)	(1,0)	(1,0)	(1,0)	(1,0)	(1,0)	(1,0)	(1,0)	(1,0)	(1,0)	(1,0)	(1,0)	(1,0)	(1,0)	(1,0)	(1,0)	
L1D -310>	(322,1)	(96,4)	(256,1)	(258,5)	(0,0)	(244,15)	(326,1)	(216,104)	(316,4)	(140,1)	(80,1)	(94,9)	(154,8)	(28,64)	(304,6)	(16,4)	
L1D -309>	(1,73)	(1,0)	(1,0)	(1,0)	(1,0)	(1,0)	(1,0)	(1,0)	(1,0)	(1,0)	(1,0)	(1,0)	(1,0)	(1,0)	(1,0)	(1,0)	
L1D -308>	(260,66)	(206,20)	(339,3)	(150,0)	(322,0)	(346,1)	(354,4)	(42,2)	(-14,2)	(258,0)	(364,1)	(152,0)	(244,0)	(82,33)	(18,2)	(8,3)	
L1D -307>	(1,0)	(1,0)	(1,0)	(1,0)	(1,0)	(1,0)	(1,0)	(1,0)	(1,0)	(1,0)	(1,0)	(1,0)	(1,0)	(1,0)	(1,0)	(1,0)	
L1D -306>	(28,25)	(326,59)	(316,86)	(94,3)	(230,2)	(166,48)	(84,12)	(10,3)	(304,4)	(96,12)	(338,1)	(354,1)	(272,94)	(8,32)	(250,30)	(-40,21)	
L1D -305>	(238,1)	(408,10)	(234,1)	(0,2)	(15,44)	(94,63)	(12,46)	(20,18)	(-3,6)	(-8,21)	(1,0)	(1,0)	(1,0)	(1,0)	(1,0)	(1,0)	
L1D -304>	(28,99)	(74,54)	(208,39)	(-40,3)	(192,4)	(10,1)	(354,1)	(324,16)	(302,29)	(80,8)	(316,31)	(16,27)	(76,3)	(-10,5)	(116,4)	(8,5)	
L1D -303>	(28,7)	(260,19)	(68,30)	(140,1)	(1,0)	(1,0)	(1,0)	(1,0)	(1,0)	(1,0)	(1,0)	(1,0)	(1,0)	(1,0)	(1,0)	(1,0)	
L1D -302>	(120,4)	(92,6)	(326,3)	(2,5)	(66,94)	(-22,1)	(140,73)	(80,32)	(-10,1)	(190,1)	(16,1)	(118,1)	(1,0)	(1,0)	(1,0)	(1,0)	
L1D -301>	(1,0)	(1,0)	(1,0)	(1,0)	(1,0)	(1,0)	(1,0)	(1,0)	(1,0)	(1,0)	(1,0)	(1,0)	(1,0)	(1,0)	(1,0)	(1,0)	
L1D -300>	(66,105)	(96,1)	(-22,15)	(98,0)	(186,0)	(118,16)	(338,83)	(134,32)	(-8,5)	(-54,1)	(84,3)	(232,0)	(260,3)	(102,3)	(316,0)	(1,0)	
L1D -299>	(1,0)	(1,0)	(1,0)	(1,0)	(1,0)	(1,0)	(1,0)	(1,0)	(1,0)	(1,0)	(1,0)	(1,0)	(1,0)	(1,0)	(1,0)	(1,0)	
L1D -298>	(314,45)	(134,60)	(338,5)	(40,38)	(254,53)	(324,4)	(-22,2)	(238,2)	(190,1)	(318,14)	(268,1)	(-10,1)	(94,107)	(296,81)	(344,11)	(262,10)	
L1D -297>	(256,22)	(1,0)	(1,0)	(1,0)	(1,0)	(1,0)	(1,0)	(1,0)	(1,0)	(1,0)	(1,0)	(1,0)	(1,0)	(1,0)	(1,0)	(1,0)	
L1D -296>	(232,14)	(86,1)	(256,9)	(330,24)	(212,117)	(267,3)	(200,4)	(134,5)	(336,8)	(284,3)	(26,2)	(42,5)	(206,2)	(148,7)	(303,2)	(258,2)	
L1D -295>	(9,1)	(1,0)	(1,0)	(1,0)	(1,0)	(1,0)	(1,0)	(1,0)	(1,0)	(1,0)	(1,0)	(1,0)	(1,0)	(1,0)	(1,0)	(1,0)	
L1D -294>	(250,8)	(392,71)	(204,1)	(0,105)	(30,3)	(166,50)	(268,88)	(178,74)	(212,2)	(192,6)	(246,9)	(402,37)	(32,5)	(197,3)	(154,5)	(70,50)	
L1D -293>	(-20,14)	(-15,1)	(-1,1)	(1,0)	(1,0)	(1,0)	(1,0)	(1,0)	(1,0)	(1,0)	(1,0)	(1,0)	(1,0)	(1,0)	(1,0)	(1,0)	
L1D -292>	(140,1)	(332,22)	(-13,64)	(8,4)	(212,5)	(10,23)	(0,9)	(246,5)	(272,21)	(244,0)	(12,11)	(268,4)	(306,3)	(228,10)	(316,1)	(-30,4)	
L1D -291>	(322,59)	(-4,6)	(274,16)	(5,12)	(84,1)	(1,0)	(1,0)	(1,0)	(1,0)	(1,0)	(1,0)	(1,0)	(1,0)	(1,0)	(1,0)	(1,0)	
L1D -290>	(30,117)	(14,1)	(212,37)	(42,8)	(330,2)	(302,11)	(-56,45)	(214,6)	(116,3)	(48,6)	(145,8)	(10,32)	(4,4)	(86,102)	(40,63)	(244,10)	
L1D -289>	(320,4)	(1,0)	(1,0)	(1,0)	(1,0)	(1,0)	(1,0)	(1,0)	(1,0)	(1,0)	(1,0)	(1,0)	(1,0)	(1,0)	(1,0)	(1,0)	
L1D -288>	(308,84)	(-28,7)	(4,1)	(18,5)	(286,4)	(-6,1)	(22,1)	(-22,12)	(10,6)	(74,39)	(-70,54)	(78,26)	(324,6)	(-34,5)	(-30,14)	(76,14)	
L1D -287>	(1,0)	(1,0)	(1,0)	(1,0)	(1,0)	(1,0)	(1,0)	(1,0)	(1,0)	(1,0)	(1,0)	(1,0)	(1,0)	(1,0)	(1,0)	(1,0)	
L1D -286>	(308,1)	(278,0)	(64,0)	(124,0)	(20,79)	(26,2)	(170,1)	(224,1)	(118,0)	(-28,0)	(13,10)	(38,5)	(352,4)	(-70,0)	(270,1)	(290,2)	
L1D -285>	(1,0)	(1,0)	(1,0)	(1,0)	(1,0)	(1,0)	(1,0)	(1,0)	(1,0)	(1,0)	(1,0)	(1,0)	(1,0)	(1,0)	(1,0)	(1,0)	
L1D -284>	(114,27)	(350,1)	(64,127)	(268,5)	(272,19)	(308,1)	(298,3)	(234,2)	(206,1)	(318,0)	(36,0)	(70,4)	(170,19)	(-40,8)	(224,8)	(303,9)	
L1D -283>	(212,48)	(64,23)	(186,11)	(-2,5)	(74,1)	(190,13)	(-22,23)	(216,0)	(8,10)	(72,102)	(192,0)	(1,0)	(1,0)	(1,0)	(1,0)	(1,0)	
L1D -282>	(281,73)	(-40,21)	(318,12)	(258,11)	(244,10)	(316,11)	(206,6)	(308,1)	(314,1)	(1,0)	(1,0)	(1,0)	(1,0)	(1,0)	(1,0)	(1,0)	
L1D -281>	(70,53)	(126,1)	(1,0)	(1,0)	(1,0)	(1,0)	(1,0)	(1,0)	(1,0)	(1,0)	(1,0)	(1,0)	(1,0)	(1,0)	(1,0)	(1,0)	
L1D -280>	(92,1)	(-12,3)	(320,8)	(116,11)	(284,58)	(114,13)	(-67,2)	(78,22)	(318,3)	(268,4)	(146,124)	(228,3)	(106,29)	(202,81)	(254,7)	(200,5)	
L1D -279>	(1,0)	(1,0)	(1,0)	(1,0)	(1,0)	(1,0)	(1,0)	(1,0)	(1,0)	(1,0)	(1,0)	(1,0)	(1,0)	(1,0)	(1,0)	(1,0)	
L1D -278>	(312,76)	(8,0)	(368,0)	(12,0)	(267,1)	(132,0)	(332,2)	(-30,1)	(214,7)	(288,0)	(46,1)	(92,0)	(42,2)	(360,1)	(94,0)	(212,37)	
L1D -277>	(1,0)	(1,0)	(1,0)	(1,0)	(1,0)	(1,0)	(1,0)	(1,0)	(1,0)	(1,0)	(1,0)	(1,0)	(1,0)	(1,0)	(1,0)	(1,0)	
L1D -276>	(252,1)	(80,2)	(18,3)	(260,2)	(274,1)	(278,1)	(178,21)	(-28,27)	(-92,9)	(36,1)	(302,1)	(1,0)	(1,0)	(1,0)	(1,0)	(1,0)	
L1D -275>	(277,97)	(-75,1)	(212,0)	(58,0)	(184,0)	(180,3)	(-28,1)	(1,0)	(1,0)	(1,0)	(1,0)	(1,0)	(1,0)	(1,0)	(1,0)	(1,0)	
L1D -274>	(340,1)	(-34,1)	(62,0)	(136,63)	(-12,0)	(-31,0)	(98,95)	(84,16)	(-87,33)	(-85,19)	(238,12)	(228,5)	(122,5)	(292,4)	(322,12)	(166,3)	
L1D -273>	(8,1)	(1,0)	(1,0)	(1,0)	(1,0)	(1,0)	(1,0)	(1,0)	(1,0)	(1,0)	(1,0)	(1,0)	(1,0)	(1,0)	(1,0)	(1,0)	
L1D -272>	(308,12)	(-54,118)	(226,12)	(-10,106)	(96,18)	(312,12)	(2,4)	(106,21)	(264,26)	(162,4)	(158,4)	(118,7)	(84,1)	(306,24)	(0,8)	(80,3)	
L1D -271>	(254,29)	(1,0)	(1,0)	(1,0)	(1,0)	(1,0)	(1,0)	(1,0)	(1,0)	(1,0)	(1,0)	(1,0)	(1,0)	(1,0)	(1,0)	(1,0)	
L1D -270>	(-21,74)	(332,19)	(202,0)	(-26,2)	(-25,1)	(252,2)	(102,0)	(14,0)	(44,15)	(148,15)	(118,0)	(132,0)	(122,0)	(170,1)	(312,0)	(16,0)	
L1D -269>	(1,0)	(1,0)	(1,0)	(1,0)	(1,0)	(1,0)	(1,0)	(1,0)	(1,0)	(1,0)	(1,0)	(1,0)	(1,0)	(1,0)	(1,0)	(1,0)	
L1D -268>	(10,20)	(290,93)	(152,26)	(30,9)	(36,18)	(28,1)	(4,26)	(40,2)	(332,15)	(128,4)	(34,106)	(200,6)	(134,8)	(370,9)	(14,14)	(198,57)	
L1D -267>	(196,43)	(0,2)	(240,50)	(180,16)	(158,74)	(212,1)	(284,20)	(260,27)	(354,9)	(1,0)	(1,0)	(1,0)	(1,0)	(1,0)	(1,0)	(1,0)	
L1D -266>	(212,121)	(82,7)	(238,1)	(-22,6)	(116,2)	(330,7)	(14,23)	(-95,12)	(242,3)	(8,38)	(244,57)	(214,5)	(206,12)	(300,28)	(296,1)	(322,2)	
L1D -265>	(1,0)	(1,0)	(1,0)	(1,0)	(1,0)	(1,0)	(1,0)	(1,0)	(1,0)	(1,0)	(1,0)	(1,0)	(1,0)	(1,0)	(1,0)	(1,0)	
L1D -264>	(232,7)	(-4,1)	(294,12)	(68,33)	(36,18)	(82,2)	(48,24)	(14,2)	(308,4)	(286,106)	(154,2)	(24,3)	(26,7)	(174,6)	(278,103)	(312,95)	
L1D -263>	(1,0)	(1,0)	(1,0)	(1,0)	(1,0)	(1,0)	(1,0)	(1,0)	(1,0)	(1,0)	(1,0)	(1,0)	(1,0)	(1,0)	(1,0)	(1,0)	
L1D -262>	(260,3)	(-10,15)	(10,19)	(220,1)	(18,1)	(252,1)	(254,2)	(212,1)	(154,11)	(324,66)	(270,10)	(-6,9)	(118,10)	(115,5)	(40,18)	(68,1)	
L1D -261>	(213,2)	(103,23)	(1,0)	(1,0)	(1,0)	(1,0)	(1,0)	(1,0)	(1,0)	(1,0)	(1,0)	(1,0)	(1,0)	(1,0)	(1,0)	(1,0)	
L1D -260>	(10,17)	(158,13)	(30,1)	(292,4)	(66,69)	(168,1)	(12,4)	(188,1)	(308,29)	(-90,1)	(380,7)	(106,10)	(336,3)	(0,2)	(354,32)	(72,5)	
L1D -259>	(1,0)	(1,0)	(1,0)	(1,0)	(1,0)	(1,0)	(1,0)	(1,0)	(1,0)	(1,0)	(1,0)	(1,0)	(1,0)	(1,0)	(1,0)	(1,0)	
L1D -258>	(115,64)	(348,0)	(262,15)	(16,2)	(272,0)	(108,2)	(112,2)	(256,42)	(114,10)	(-8,33)	(14,2)	(202,1)	(88,2)	(228,2)	(28,2)	(244,2)	
L1D -257>	(1,0)	(1,0)	(1,0)	(1,0)	(1,0)	(1,0)	(1,0)	(1,0)	(1,0)	(1,0)	(1,0)	(1,0)	(1,0)	(1,0)	(1,0)	(1,0)	
L1D -256>	(184,1)	(166,6)	(14,2)	(84,91)	(2,3)	(194,0)	(232,1)	(72,0)	(144,0)	(-16,0)	(266,0)	(86,4)	(220,124)	(244,3)	(74,9)	(-14,8)	
L1D -255>	(1,0)	(1,0)	(1,0)	(1,0)	(1,0)	(1,0)	(1,0)	(1,0)	(1,0)	(1,0)	(1,0)	(1,0)	(1,0)	(1,0)	(1,0)	(1,0)	
L1D -254>	(-42,6)	(-38,2)	(-84,11)	(98,4)	(326,5)	(133,107)	(142,46)	(160,1)	(212,2)	(-16,40)	(164,2)	(240,79)	(248,12)	(22,26)	(322,41)	(178,17)	
L1D -253>	(1,0)	(1,0)	(1,0)	(1,0)	(1,0)	(1,0)	(1,0)	(1,0)	(1,0)	(1,0)	(1,0)	(1,0)	(1,0)	(1,0)	(1,0)	(1,0)	
L1D -252>	(352,21)	(358,93)	(386,24)	(208,2)	(234,1)	(112,1)	(106,1)	(256,2)	(24,16)	(22,27)	(-64,1)	(222,26)	(104,5)	(4,36)	(236,2)	(28,2)	
L1D -251>	(1,0)	(1,0)	(1,0)	(1,0)	(1,0)	(1,0)	(1,0)	(1,0)	(1,0)	(1,0)	(1,0)	(1,0)	(1,0)	(1,0)	(1,0)	(1,0)	
L1D -250>	(178,1)	(-40,6)	(318,0)	(2,9)	(244,0)	(56,2)	(254,3)	(-22,1)	(248,1)	(334,4)	(-64,4)	(-10,65)	(0,0)	(278,16)	(300,23)	(8,2)	
L1D -249>	(1,0)	(1,0)	(1,0)	(1,0)	(1,0)	(1,0)	(1,0)	(1,0)	(1,0)	(1,0)	(1,0)	(1,0)	(1,0)	(1,0)	(1,0)	(1,0)	
L1D -248>	(-12,6)	(-2,1)	(208,0)	(278,7)	(190,31)	(286,0)	(10,0)	(66,0)	(270,6)	(-24,0)	(-18,94)	(240,44)	(16,7)	(260,3)	(78,1)	(200,7)	
L1D -247>	(72,73)	(302,0)	(96,2)	(118,5)	(64,0)	(194,11)	(184,28)	(102,13)	(208,23)	(252,13)	(186,2)	(1,0)	(1,0)	(1,0)	(1,0)	(1,0)	
L1D -246>	(272,26)	(144,27)	(228,1)	(364,1)	(318,4)	(234,0)	(48,85)	(198,2)	(298,0)	(174,6)	(28,9)	(303,1)	(336,2)	(42,6)	(100,1)	(146,2)	
L1D -245>	(1,0)	(1,0)	(1,0)	(1,0)	(1,0)	(1,0)	(1,0)	(1,0)	(1,0)	(1,0)	(1,0)	(1,0)	(1,0)	(1,0)	(1,0)	(1,0)	
L1D -244>	(324,1)	(48,97)	(270,1)	(154,1)	(-96,24)	(14,3)	(336,5)	(252,1)	(22,12)	(272,3)	(-50,5)	(226,1)	(72,3)	(32,0)	(36,0)	(118,0)	
L1D -243>	(1,0)	(1,0)	(1,0)	(1,0)	(1,0)	(1,0)	(1,0)	(1,0)	(1,0)	(1,0)	(1,0)	(1,0)	(1,0)	(1,0)	(1,0)	(1,0)	
L1D -242>	(334,1)	(188,1)	(-78,4)	(158,116)	(34,6)	(124,1)	(0,1)	(208,3)	(30,4)	(272,2)	(184,2)	(-22,27)	(194,10)	(216,46)	(202,4)	(220,5)	
L1D -241>	(313,2)	(1,0)	(1,0)	(1,0)	(1,0)	(1,0)	(1,0)	(1,0)	(1,0)	(1,0)	(1,0)	(1,0)	(1,0)	(1,0)	(1,0)	(1,0)	
L1D -240>	(10,27)	(178,109)	(8,4)	(177,5)	(28,20)	(-2,29)	(119,25)	(-14,1)	(217,100)	(118,1)	(250,1)	(2,38)	(66,27)	(304,16)	(38,14)	(94,10)	
L1D -239>	(1,0)	(1,0)	(1,0)	(1,0)	(1,0)	(1,0)	(1,0)	(1,0)	(1,0)	(1,0)	(1,0)	(1,0)	(1,0)	(1,0)	(1,0)	(1,0)	
L1D -238>	(8,2)	(20,7)	(303,1)	(40,1)	(215,1)	(172,3)	(94,22)	(214,50)	(274,5)	(28,45)	(238,1)	(98,21)	(38,29)	(44,78)	(114,65)	(-2,14)	
L1D -237>	(1,0)	(1,0)	(1,0)	(1,0)	(1,0)	(1,0)	(1,0)	(1,0)	(1,0)	(1,0)	(1,0)	(1,0)	(1,0)	(1,0)	(1,0)	(1,0)	
L1D -236>	(28,83)	(115,13)	(66,31)	(222,26)	(226,8)	(96,121)	(312,48)	(234,2)	(-92,9)	(82,2)	(38,1)	(200,1)	(324,36)	(78,22)	(264,63)	(272,2)	
L1D -235>	(302,98)	(174,1)	(0,0)	(1,0)	(1,0)	(1,0)	(1,0)	(1,0)	(1,0)	(1,0)	(1,0)	(1,0)	(1,0)	(1,0)	(1,0)	(1,0)	
L1D -234>	(66,3)	(28,1)	(318,89)	(160,10)	(282,1)	(230,5)	(294,1)	(292,1)	(148,2)	(104,1)	(146,16)	(64,16)	(-28,0)	(336,0)	(358,4)	(26,1)	
L1D -233>	(1,0)	(1,0)	(1,0)	(1,0)	(1,0)	(1,0)	(1,0)	(1,0)	(1,0)	(1,0)	(1,0)	(1,0)	(1,0)	(1,0)	(1,0)	(1,0)	
L1D -232>	(324,4)	(88,89)	(338,101)	(92,20)	(70,1)	(96,1)	(260,2)	(146,2)	(44,1)	(308,1)	(192,22)	(126,17)	(190,2)	(300,104)	(-40,7)	(-14,27)	
L1D -231>	(1,0)	(1,0)	(1,0)	(1,0)	(1,0)	(1,0)	(1,0)	(1,0)	(1,0)	(1,0)	(1,0)	(1,0)	(1,0)	(1,0)	(1,0)	(1,0)	
L1D -230>	(115,123)	(-12,1)	(302,15)	(212,13)	(-64,24)	(207,8)	(338,37)	(22,7)	(102,3)	(-22,1)	(-84,20)	(208,2)	(216,7)	(304,4)	(20,9)	(160,9)	
L1D -229>	(1,0)	(1,0)	(1,0)	(1,0)	(1,0)	(1,0)	(1,0)	(1,0)	(1,0)	(1,0)	(1,0)	(1,0)	(1,0)	(1,0)	(1,0)	(1,0)	
L1D -228>	(300,1)	(302,15)	(250,33)	(314,73)	(226,9)	(138,1)	(212,37)	(144,33)	(8,14)	(-40,7)	(100,1)	(-12,2)	(330,11)	(-102,2)	(82,23)	(96,42)	
L1D -227>	(1,0)	(1,0)	(1,0)	(1,0)	(1,0)	(1,0)	(1,0)	(1,0)	(1,0)	(1,0)	(1,0)	(1,0)	(1,0)	(1,0)	(1,0)	(1,0)	
L1D -226>	(122,53)	(-68,1)	(-96,3)	(314,3)	(246,3)	(28,3)	(162,13)	(288,0)	(164,8)	(324,86)	(308,41)	(62,6)	(138,6)	(14,24)	(-10,3)	(-16,3)	
L1D -225>	(-42,1)	(1,0)	(1,0)	(1,0)	(1,0)	(1,0)	(1,0)	(1,0)	(1,0)	(1,0)	(1,0)	(1,0)	(1,0)	(1,0)	(1,0)	(1,0)	
L1D -224>	(78,78)	(176,19)	(14,7)	(397,94)	(88,3)	(54,3)	(46,6)	(-64,1)	(76,1)	(324,11)	(403,1)	(-72,7)	(84,3)	(192,5)	(238,13)	(28,4)	
L1D -223>	(1,0)	(1,0)	(1,0)	(1,0)	(1,0)	(1,0)	(1,0)	(1,0)	(1,0)	(1,0)	(1,0)	(1,0)	(1,0)	(1,0)	(1,0)	(1,0)	
L1D -222>	(28,1)	(-14,51)	(160,14)	(30,60)	(-22,3)	(232,4)	(80,2)	(-102,98)	(74,11)	(10,1)	(308,78)	(170,10)	(202,7)	(188,1)	(118,1)	(14,4)	
L1D -221>	(-46,122)	(1,0)	(1,0)	(1,0)	(1,0)	(1,0)	(1,0)	(1,0)	(1,0)	(1,0)	(1,0)	(1,0)	(1,0)	(1,0)	(1,0)	(1,0)	
L1D -220>	(-10,7)	(162,122)	(186,11)	(215,15)	(212,1)	(264,1)	(258,4)	(318,1)	(74,13)	(234,21)	(122,24)	(194,1)	(104,11)	(256,112)	(170,3)	(214,5)	
L1D -219>	(-64,99)	(154,2)	(221,34)	(34,10)	(122,13)	(1,0)	(1,0)	(1,0)	(1,0)	(1,0)	(1,0)	(1,0)	(1,0)	(1,0)	(1,0)	(1,0)	
L1D -218>	(232,92)	(14,29)	(66,30)	(60,32)	(-34,1)	(-46,2)	(149,7)	(114,1)	(142,6)	(8,3)	(-94,7)	(318,8)	(211,1)	(-130,4)	(288,4)	(72,12)	
L1D -217>	(-58,19)	(122,1)	(1,0)	(1,0)	(1,0)	(1,0)	(1,0)	(1,0)	(1,0)	(1,0)	(1,0)	(1,0)	(1,0)	(1,0)	(1,0)	(1,0)	
L1D -216>	(124,5)	(302,98)	(12,1)	(212,25)	(34,12)	(242,15)	(282,3)	(96,39)	(72,106)	(210,63)	(158,26)	(22,20)	(8,23)	(2,20)	(38,6)	(-94,17)	
L1D -215>	(201,24)	(181,23)	(345,10)	(405,1)	(323,1)	(1,0)	(1,0)	(1,0)	(1,0)	(1,0)	(1,0)	(1,0)	(1,0)	(1,0)	(1,0)	(1,0)	
L1D -214>	(28,73)	(36,2)	(210,1)	(38,3)	(78,34)	(60,30)	(94,10)	(-134,3)	(-94,21)	(206,18)	(236,6)	(168,12)	(238,16)	(10,2)	(-30,10)	(115,31)	
L1D -213>	(102,7)	(351,5)	(319,5)	(192,11)	(-6,1)	(317,1)	(1,0)	(1,0)	(1,0)	(1,0)	(1,0)	(1,0)	(1,0)	(1,0)	(1,0)	(1,0)	
L1D -212>	(216,14)	(170,127)	(168,53)	(222,1)	(94,32)	(-116,6)	(176,11)	(290,5)	(272,25)	(-76,48)	(118,4)	(158,39)	(112,11)	(122,4)	(8,4)	(-96,6)	
L1D -211>	(175,124)	(114,29)	(102,73)	(-166,12)	(118,1)	(-74,1)	(-64,1)	(1,0)	(1,0)	(1,0)	(1,0)	(1,0)	(1,0)	(1,0)	(1,0)	(1,0)	
L1D -210>	(175,38)	(-142,10)	(96,18)	(8,1)	(200,2)	(-14,31)	(-16,98)	(-94,1)	(182,3)	(-114,4)	(112,1)	(238,5)	(-8,5)	(254,1)	(124,6)	(-10,9)	
L1D -209>	(138,39)	(-12,126)	(-66,2)	(-74,14)	(118,0)	(1,0)	(1,0)	(1,0)	(1,0)	(1,0)	(1,0)	(1,0)	(1,0)	(1,0)	(1,0)	(1,0)	
L1D -208>	(258,6)	(344,3)	(24,108)	(-12,1)	(112,3)	(96,39)	(-36,11)	(266,2)	(-122,1)	(160,5)	(236,7)	(28,17)	(-20,20)	(230,29)	(-152,5)	(-34,4)	
L1D -207>	(-60,7)	(126,10)	(110,24)	(238,47)	(-84,31)	(40,20)	(-1,1)	(1,0)	(1,0)	(1,0)	(1,0)	(1,0)	(1,0)	(1,0)	(1,0)	(1,0)	
L1D -206>	(228,10)	(238,2)	(126,37)	(56,67)	(-8,7)	(48,26)	(-14,68)	(102,3)	(191,1)	(198,3)	(-28,2)	(236,2)	(14,2)	(114,2)	(86,3)	(94,39)	
L1D -205>	(126,111)	(-134,18)	(13,1)	(1,0)	(1,0)	(1,0)	(1,0)	(1,0)	(1,0)	(1,0)	(1,0)	(1,0)	(1,0)	(1,0)	(1,0)	(1,0)	
L1D -204>	(232,1)	(8,103)	(192,1)	(110,1)	(-84,0)	(-14,2)	(76,2)	(-132,0)	(236,2)	(298,0)	(-80,6)	(26,5)	(4,2)	(230,1)	(158,0)	(-26,0)	
L1D -203>	(14,21)	(1,0)	(1,0)	(1,0)	(1,0)	(1,0)	(1,0)	(1,0)	(1,0)	(1,0)	(1,0)	(1,0)	(1,0)	(1,0)	(1,0)	(1,0)	
L1D -202>	(308,104)	(102,18)	(42,33)	(228,1)	(100,19)	(210,14)	(-28,11)	(234,6)	(236,3)	(78,15)	(150,3)	(-102,25)	(-166,12)	(94,4)	(312,11)	(120,3)	
L1D -201>	(143,2)	(1,0)	(1,0)	(1,0)	(1,0)	(1,0)	(1,0)	(1,0)	(1,0)	(1,0)	(1,0)	(1,0)	(1,0)	(1,0)	(1,0)	(1,0)	
L1D -200>	(50,5)	(-10,1)	(24,31)	(10,4)	(16,56)	(162,2)	(-74,7)	(302,26)	(248,37)	(28,10)	(198,3)	(126,3)	(220,4)	(136,5)	(106,78)	(278,26)	
L1D -199>	(-8,23)	(302,59)	(1,0)	(1,0)	(1,0)	(1,0)	(1,0)	(1,0)	(1,0)	(1,0)	(1,0)	(1,0)	(1,0)	(1,0)	(1,0)	(1,0)	
L1D -198>	(160,1)	(190,2)	(-54,14)	(196,1)	(184,1)	(2,1)	(76,2)	(136,4)	(32,14)	(100,2)	(188,0)	(328,4)	(-10,75)	(260,15)	(308,13)	(216,7)	
L1D -197>	(0,77)	(1,0)	(1,0)	(1,0)	(1,0)	(1,0)	(1,0)	(1,0)	(1,0)	(1,0)	(1,0)	(1,0)	(1,0)	(1,0)	(1,0)	(1,0)	
L1D -196>	(222,31)	(38,109)	(-6,74)	(-14,18)	(240,10)	(130,55)	(308,13)	(74,14)	(190,1)	(84,71)	(200,3)	(220,2)	(326,9)	(-32,4)	(-18,3)	(14,7)	
L1D -195>	(195,77)	(48,2)	(265,0)	(46,2)	(188,1)	(196,0)	(1,0)	(1,0)	(1,0)	(1,0)	(1,0)	(1,0)	(1,0)	(1,0)	(1,0)	(1,0)	
L1D -194>	(148,8)	(190,36)	(308,127)	(104,11)	(74,7)	(128,18)	(32,5)	(236,70)	(302,13)	(26,4)	(-122,7)	(181,33)	(-78,8)	(272,1)	(-80,1)	(86,6)	
L1D -193>	(-1,1)	(194,1)	(67,1)	(1,0)	(1,0)	(1,0)	(1,0)	(1,0)	(1,0)	(1,0)	(1,0)	(1,0)	(1,0)	(1,0)	(1,0)	(1,0)	
L1D -192>	(66,63)	(-25,2)	(242,1)	(-80,3)	(191,3)	(-1,2)	(-2,1)	(104,15)	(192,1)	(246,126)	(290,8)	(-116,2)	(-26,2)	(4,3)	(74,1)	(218,8)	
L1D -191>	(6,52)	(188,32)	(26,52)	(-148,1)	(162,1)	(150,1)	(1,0)	(1,0)	(1,0)	(1,0)	(1,0)	(1,0)	(1,0)	(1,0)	(1,0)	(1,0)	
L1D -190>	(16,6)	(94,1)	(208,127)	(62,23)	(-148,18)	(74,86)	(198,9)	(84,6)	(104,14)	(64,16)	(72,10)	(338,6)	(207,18)	(-14,5)	(-84,49)	(186,20)	
L1D -189>	(5,1)	(399,114)	(339,7)	(160,1)	(3,4)	(405,1)	(1,0)	(1,0)	(1,0)	(1,0)	(1,0)	(1,0)	(1,0)	(1,0)	(1,0)	(1,0)	
L1D -188>	(195,1)	(-15,106)	(164,9)	(212,2)	(28,4)	(214,4)	(156,8)	(-102,36)	(104,18)	(344,9)	(20,4)	(130,9)	(80,19)	(262,18)	(220,2)	(-40,3)	
L1D -187>	(-12,20)	(9,12)	(1,1)	(1,0)	(1,0)	(1,0)	(1,0)	(1,0)	(1,0)	(1,0)	(1,0)	(1,0)	(1,0)	(1,0)	(1,0)	(1,0)	
L1D -186>	(336,5)	(-122,108)	(1,10)	(262,41)	(66,7)	(310,1)	(-46,1)	(214,2)	(172,2)	(78,1)	(64,14)	(182,3)	(72,75)	(244,1)	(160,2)	(-184,11)	
L1D -185>	(1,46)	(-12,4)	(323,1)	(215,0)	(106,122)	(-6,2)	(-154,2)	(209,3)	(1,0)	(1,0)	(1,0)	(1,0)	(1,0)	(1,0)	(1,0)	(1,0)	
L1D -184>	(110,108)	(10,1)	(-32,14)	(72,45)	(-46,119)	(194,27)	(-8,16)	(208,68)	(12,85)	(118,15)	(290,27)	(186,5)	(62,19)	(66,1)	(212,10)	(68,46)	
L1D -183>	(154,2)	(122,21)	(5,18)	(2,95)	(-145,3)	(38,3)	(1,0)	(1,0)	(1,0)	(1,0)	(1,0)	(1,0)	(1,0)	(1,0)	(1,0)	(1,0)	
L1D -182>	(-132,61)	(24,1)	(106,17)	(216,0)	(-120,0)	(204,0)	(38,77)	(120,1)	(132,1)	(-148,1)	(-36,0)	(-50,44)	(-2,10)	(-28,6)	(-118,10)	(160,9)	
L1D -181>	(-1,8)	(385,34)	(319,25)	(293,2)	(67,3)	(-121,22)	(87,81)	(115,21)	(317,6)	(351,7)	(1,0)	(1,0)	(1,0)	(1,0)	(1,0)	(1,0)	
L1D -180>	(168,1)	(8,100)	(66,78)	(50,3)	(-32,1)	(-138,103)	(-22,2)	(226,1)	(236,3)	(144,13)	(-64,4)	(110,2)	(-78,5)	(170,15)	(178,13)	(102,1)	
L1D -179>	(87,53)	(-6,69)	(167,4)	(1,0)	(1,0)	(1,0)	(1,0)	(1,0)	(1,0)	(1,0)	(1,0)	(1,0)	(1,0)	(1,0)	(1,0)	(1,0)	
L1D -178>	(144,2)	(172,3)	(42,2)	(-102,9)	(-26,72)	(226,3)	(13,20)	(204,3)	(118,15)	(-40,3)	(102,15)	(-28,1)	(-38,2)	(32,1)	(324,14)	(277,6)	
L1D -177>	(244,24)	(173,11)	(0,2)	(26,1)	(272,105)	(154,11)	(215,11)	(171,1)	(1,0)	(1,0)	(1,0)	(1,0)	(1,0)	(1,0)	(1,0)	(1,0)	
L1D -176>	(4,6)	(-28,0)	(174,0)	(193,0)	(-168,3)	(345,1)	(96,0)	(-98,2)	(175,1)	(344,1)	(348,1)	(2,0)	(85,0)	(-14,0)	(347,87)	(-126,0)	
L1D -175>	(4,122)	(12,16)	(172,2)	(-8,1)	(-169,12)	(108,0)	(343,1)	(3,3)	(176,0)	(2,0)	(174,0)	(-170,3)	(-1,0)	(344,0)	(114,0)	(213,0)	
L1D -174>	(234,1)	(-170,7)	(-172,61)	(173,98)	(4,21)	(343,8)	(2,17)	(175,3)	(-169,2)	(0,1)	(3,44)	(344,13)	(-173,4)	(124,4)	(1,3)	(42,3)	
L1D -173>	(173,51)	(344,74)	(172,89)	(-3,5)	(170,27)	(2,4)	(342,2)	(174,23)	(343,13)	(171,3)	(-171,12)	(-1,9)	(3,4)	(-173,6)	(-172,25)	(1,14)	
L1D -172>	(-173,16)	(-224,18)	(-171,3)	(176,1)	(344,3)	(170,5)	(-1,4)	(173,101)	(169,32)	(345,36)	(171,39)	(1,13)	(-90,5)	(347,5)	(-3,12)	(-172,13)	
L1D -171>	(-173,76)	(168,21)	(170,65)	(344,35)	(172,88)	(173,30)	(-2,33)	(174,8)	(-3,23)	(-1,111)	(126,9)	(-170,1)	(-172,42)	(0,14)	(1,61)	(-4,1)	
L1D -170>	(-173,1)	(342,3)	(-3,4)	(-22,8)	(173,85)	(174,38)	(-174,2)	(169,5)	(-1,30)	(-172,36)	(192,9)	(64,2)	(-4,5)	(-110,6)	(172,51)	(1,7)	
L1D -169>	(-2,1)	(-1,60)	(171,75)	(97,5)	(-171,3)	(174,0)	(-172,7)	(1,0)	(81,0)	(168,2)	(173,2)	(341,0)	(172,1)	(2,0)	(-4,0)	(342,0)	
L1D -168>	(72,2)	(267,3)	(-4,4)	(172,66)	(158,35)	(-36,1)	(140,0)	(260,2)	(-168,10)	(-56,3)	(341,0)	(-88,2)	(46,1)	(112,3)	(-32,27)	(169,23)	
L1D -167>	(190,21)	(-2,2)	(-172,28)	(172,2)	(-1,7)	(171,1)	(170,1)	(1,0)	(1,0)	(1,0)	(1,0)	(1,0)	(1,0)	(1,0)	(1,0)	(1,0)	
L1D -166>	(-134,7)	(368,21)	(144,19)	(262,1)	(162,5)	(366,18)	(384,17)	(152,5)	(220,36)	(-188,32)	(214,5)	(-32,10)	(-181,2)	(268,7)	(185,33)	(156,93)	
L1D -165>	(-1,107)	(1,58)	(172,86)	(9,34)	(344,6)	(-172,25)	(-2,16)	(342,2)	(171,1)	(2,2)	(1,0)	(1,0)	(1,0)	(1,0)	(1,0)	(1,0)	
L1D -164>	(114,21)	(-15,1)	(-96,1)	(120,100)	(166,4)	(-134,25)	(-108,9)	(92,5)	(24,4)	(136,2)	(13,35)	(220,48)	(170,25)	(208,6)	(10,13)	(-102,11)	
L1D -163>	(1,115)	(12,3)	(-1,5)	(-174,0)	(-20,1)	(171,9)	(-140,1)	(1,0)	(1,0)	(1,0)	(1,0)	(1,0)	(1,0)	(1,0)	(1,0)	(1,0)	
L1D -162>	(-136,3)	(238,97)	(-140,1)	(-148,44)	(2,16)	(76,1)	(-100,2)	(148,1)	(-180,1)	(11,1)	(12,1)	(-12,2)	(-64,1)	(-108,9)	(160,3)	(-2,11)	
L1D -161>	(90,1)	(-110,45)	(5,5)	(72,1)	(1,0)	(1,0)	(1,0)	(1,0)	(1,0)	(1,0)	(1,0)	(1,0)	(1,0)	(1,0)	(1,0)	(1,0)	
L1D -160>	(98,4)	(-126,89)	(-102,51)	(2,3)	(145,3)	(74,3)	(158,85)	(26,1)	(212,2)	(246,19)	(12,2)	(-8,7)	(-64,2)	(-100,27)	(48,72)	(248,21)	
L1D -159>	(88,1)	(9,92)	(18,20)	(27,7)	(3,1)	(1,0)	(1,0)	(1,0)	(1,0)	(1,0)	(1,0)	(1,0)	(1,0)	(1,0)	(1,0)	(1,0)	
L1D -158>	(66,63)	(-64,91)	(76,5)	(-14,1)	(188,91)	(-108,8)	(152,12)	(100,1)	(-102,5)	(98,11)	(160,3)	(-148,8)	(94,3)	(-98,4)	(-44,3)	(-56,3)	
L1D -157>	(-126,2)	(1,0)	(1,0)	(1,0)	(1,0)	(1,0)	(1,0)	(1,0)	(1,0)	(1,0)	(1,0)	(1,0)	(1,0)	(1,0)	(1,0)	(1,0)	
L1D -156>	(28,66)	(-26,42)	(152,4)	(228,1)	(232,9)	(142,92)	(155,11)	(344,7)	(172,16)	(188,6)	(-6,14)	(104,9)	(18,7)	(-36,16)	(38,6)	(78,16)	
L1D -155>	(-126,56)	(1,0)	(1,0)	(1,0)	(1,0)	(1,0)	(1,0)	(1,0)	(1,0)	(1,0)	(1,0)	(1,0)	(1,0)	(1,0)	(1,0)	(1,0)	
L1D -154>	(96,105)	(242,12)	(34,116)	(122,9)	(-106,29)	(210,114)	(182,38)	(-12,11)	(0,12)	(268,1)	(8,9)	(118,5)	(-82,19)	(188,19)	(392,2)	(140,12)	
L1D -153>	(-128,1)	(1,0)	(1,0)	(1,0)	(1,0)	(1,0)	(1,0)	(1,0)	(1,0)	(1,0)	(1,0)	(1,0)	(1,0)	(1,0)	(1,0)	(1,0)	
L1D -152>	(-122,85)	(96,97)	(268,4)	(262,0)	(88,24)	(-88,1)	(390,1)	(-120,1)	(0,10)	(1,0)	(138,1)	(156,1)	(150,0)	(370,8)	(-66,7)	(174,0)	
L1D -151>	(90,31)	(-21,18)	(-5,107)	(122,13)	(291,7)	(-20,2)	(-96,2)	(1,0)	(1,0)	(1,0)	(1,0)	(1,0)	(1,0)	(1,0)	(1,0)	(1,0)	
L1D -150>	(322,1)	(-54,1)	(210,12)	(-46,83)	(-114,12)	(148,5)	(246,15)	(28,5)	(-18,17)	(100,5)	(168,5)	(-86,4)	(-64,7)	(-92,11)	(-4,2)	(178,21)	
L1D -149>	(219,0)	(14,4)	(-46,1)	(1,0)	(12,71)	(142,28)	(92,2)	(1,0)	(1,0)	(1,0)	(1,0)	(1,0)	(1,0)	(1,0)	(1,0)	(1,0)	
L1D -148>	(326,60)	(190,13)	(-118,9)	(216,62)	(2,56)	(294,1)	(48,6)	(198,53)	(354,7)	(-189,100)	(42,17)	(40,13)	(-110,10)	(210,17)	(196,31)	(134,5)	
L1D -147>	(-125,1)	(10,0)	(48,5)	(-12,64)	(1,0)	(1,0)	(1,0)	(1,0)	(1,0)	(1,0)	(1,0)	(1,0)	(1,0)	(1,0)	(1,0)	(1,0)	
L1D -146>	(-100,65)	(106,2)	(-28,2)	(108,0)	(24,0)	(-8,1)	(58,0)	(236,10)	(150,0)	(-102,1)	(160,2)	(132,9)	(122,0)	(-148,3)	(152,0)	(175,4)	
L1D -145>	(0,122)	(137,1)	(116,0)	(-102,15)	(146,0)	(82,0)	(147,8)	(-1,0)	(96,0)	(1,0)	(1,0)	(1,0)	(1,0)	(1,0)	(1,0)	(1,0)	
L1D -144>	(38,91)	(236,17)	(-94,12)	(-106,1)	(-36,15)	(-74,5)	(28,25)	(-170,98)	(238,2)	(-86,15)	(94,5)	(152,5)	(-64,4)	(130,2)	(-114,1)	(-66,2)	
L1D -143>	(113,6)	(-21,87)	(-8,5)	(1,0)	(1,0)	(1,0)	(1,0)	(1,0)	(1,0)	(1,0)	(1,0)	(1,0)	(1,0)	(1,0)	(1,0)	(1,0)	
L1D -142>	(-96,114)	(-76,2)	(126,13)	(12,2)	(-106,1)	(-6,3)	(-54,1)	(94,2)	(184,2)	(244,4)	(-92,1)	(156,28)	(100,1)	(10,1)	(-82,3)	(344,1)	
L1D -141>	(144,1)	(1,0)	(1,0)	(1,0)	(1,0)	(1,0)	(1,0)	(1,0)	(1,0)	(1,0)	(1,0)	(1,0)	(1,0)	(1,0)	(1,0)	(1,0)	
L1D -140>	(-92,61)	(26,11)	(-21,85)	(102,54)	(-50,3)	(40,5)	(-98,4)	(-14,20)	(-183,2)	(120,4)	(175,1)	(118,3)	(56,1)	(-246,2)	(-166,5)	(4,7)	
L1D -139>	(-4,60)	(1,80)	(46,0)	(-1,23)	(-25,9)	(12,7)	(135,0)	(1,0)	(1,0)	(1,0)	(1,0)	(1,0)	(1,0)	(1,0)	(1,0)	(1,0)	
L1D -138>	(30,21)	(246,2)	(310,1)	(330,5)	(234,9)	(70,1)	(207,4)	(22,97)	(232,95)	(254,108)	(-120,1)	(66,22)	(-10,4)	(-136,6)	(-154,4)	(188,1)	
L1D -137>	(19,72)	(-8,31)	(12,38)	(129,11)	(88,11)	(-12,5)	(207,4)	(1,0)	(1,0)	(1,0)	(1,0)	(1,0)	(1,0)	(1,0)	(1,0)	(1,0)	
L1D -136>	(310,2)	(368,3)	(-180,76)	(-13,90)	(164,2)	(16,13)	(174,20)	(-216,5)	(158,7)	(166,2)	(236,23)	(180,1)	(42,18)	(254,3)	(26,4)	(204,1)	
L1D -135>	(106,17)	(-28,95)	(-60,52)	(93,1)	(11,2)	(136,1)	(1,0)	(1,0)	(1,0)	(1,0)	(1,0)	(1,0)	(1,0)	(1,0)	(1,0)	(1,0)	
L1D -134>	(-13,84)	(354,2)	(72,4)	(70,4)	(-132,1)	(22,1)	(398,1)	(344,7)	(28,1)	(102,1)	(-40,3)	(-134,2)	(36,4)	(-174,2)	(88,3)	(154,2)	
L1D -133>	(106,8)	(19,13)	(220,1)	(1,1)	(135,2)	(136,1)	(137,1)	(134,1)	(11,1)	(1,0)	(1,0)	(1,0)	(1,0)	(1,0)	(1,0)	(1,0)	
L1D -132>	(-82,46)	(-2,14)	(-108,99)	(-16,1)	(316,5)	(82,69)	(182,7)	(72,9)	(-96,5)	(-42,37)	(122,9)	(62,2)	(78,3)	(92,5)	(-3,2)	(110,26)	
L1D -131>	(-1,1)	(209,2)	(132,1)	(128,1)	(25,127)	(95,7)	(130,1)	(1,0)	(1,0)	(1,0)	(1,0)	(1,0)	(1,0)	(1,0)	(1,0)	(1,0)	
L1D -130>	(14,100)	(-92,108)	(-16,24)	(210,9)	(-3,13)	(16,1)	(214,4)	(-12,4)	(348,9)	(-90,6)	(132,5)	(274,4)	(138,2)	(28,6)	(104,1)	(242,1)	
L1D -129>	(-121,4)	(-32,31)	(19,16)	(-8,22)	(1,0)	(1,0)	(1,0)	(1,0)	(1,0)	(1,0)	(1,0)	(1,0)	(1,0)	(1,0)	(1,0)	(1,0)	
L1D -128>	(318,23)	(-5,1)	(-1,126)	(268,1)	(126,29)	(314,10)	(-12,2)	(223,1)	(364,6)	(34,2)	(226,1)	(286,4)	(-60,5)	(-48,11)	(-3,8)	(-54,11)	
L1D -127>	(-9,1)	(166,124)	(25,13)	(38,127)	(184,1)	(8,5)	(220,17)	(127,2)	(-98,6)	(-6,3)	(19,10)	(-88,2)	(-140,5)	(12,3)	(-86,1)	(-20,2)	
L1D -126>	(-48,39)	(-46,11)	(228,1)	(-22,10)	(214,10)	(-1,68)	(118,15)	(-2,3)	(122,4)	(156,1)	(86,9)	(70,6)	(152,3)	(268,33)	(128,3)	(172,18)	
L1D -125>	(4,4)	(-1,1)	(226,18)	(-8,8)	(-10,1)	(1,0)	(1,0)	(1,0)	(1,0)	(1,0)	(1,0)	(1,0)	(1,0)	(1,0)	(1,0)	(1,0)	
L1D -124>	(180,1)	(48,23)	(-13,75)	(98,25)	(-218,17)	(-28,7)	(-80,9)	(106,1)	(138,8)	(238,5)	(-82,1)	(216,7)	(20,2)	(-311,2)	(-234,16)	(154,4)	
L1D -123>	(236,12)	(332,13)	(25,67)	(2,0)	(-2,4)	(238,71)	(224,7)	(121,0)	(324,11)	(82,7)	(119,3)	(1,0)	(1,0)	(1,0)	(1,0)	(1,0)	
L1D -122>	(-2,4)	(-76,106)	(-134,1)	(154,115)	(14,6)	(300,19)	(-28,87)	(-22,7)	(-94,19)	(-66,4)	(218,52)	(180,10)	(66,69)	(38,7)	(-64,23)	(-132,3)	
L1D -121>	(80,17)	(-27,105)	(-8,1)	(-267,3)	(127,1)	(-93,0)	(-4,0)	(-26,36)	(236,8)	(76,2)	(74,1)	(222,0)	(250,0)	(-119,0)	(1,0)	(1,0)	
L1D -120>	(86,33)	(-94,12)	(24,87)	(36,1)	(150,18)	(190,4)	(-108,39)	(32,3)	(96,3)	(144,32)	(162,7)	(118,4)	(192,3)	(-164,2)	(-174,29)	(352,5)	
L1D -119>	(-1,13)	(25,91)	(-2,3)	(92,11)	(-29,33)	(26,1)	(1,0)	(1,0)	(1,0)	(1,0)	(1,0)	(1,0)	(1,0)	(1,0)	(1,0)	(1,0)	
L1D -118>	(6,14)	(-154,11)	(0,20)	(226,1)	(-88,15)	(70,13)	(326,87)	(-66,31)	(154,13)	(-14,12)	(-128,2)	(2,3)	(26,11)	(72,1)	(38,26)	(14,55)	
L1D -117>	(-1,1)	(25,40)	(1,0)	(1,0)	(1,0)	(1,0)	(1,0)	(1,0)	(1,0)	(1,0)	(1,0)	(1,0)	(1,0)	(1,0)	(1,0)	(1,0)	
L1D -116>	(82,23)	(218,58)	(122,92)	(-4,32)	(-2,11)	(145,1)	(110,76)	(-74,24)	(-220,33)	(-104,15)	(4,4)	(112,6)	(-94,4)	(26,2)	(-152,14)	(140,4)	
L1D -115>	(87,116)	(-121,2)	(119,3)	(25,80)	(143,18)	(67,28)	(181,20)	(4,11)	(1,0)	(1,0)	(1,0)	(1,0)	(1,0)	(1,0)	(1,0)	(1,0)	
L1D -114>	(130,84)	(-8,24)	(78,19)	(28,1)	(175,4)	(190,6)	(106,2)	(-100,1)	(-50,2)	(122,4)	(96,3)	(138,1)	(-154,4)	(30,2)	(84,5)	(286,3)	
L1D -113>	(25,57)	(117,7)	(1,0)	(1,0)	(1,0)	(1,0)	(1,0)	(1,0)	(1,0)	(1,0)	(1,0)	(1,0)	(1,0)	(1,0)	(1,0)	(1,0)	
L1D -112>	(-2,2)	(-122,106)	(64,4)	(175,19)	(24,5)	(166,36)	(-10,6)	(58,4)	(-72,10)	(-48,11)	(180,7)	(-148,3)	(-8,1)	(-130,6)	(-88,4)	(242,4)	
L1D -111>	(-16,9)	(-20,91)	(1,0)	(1,0)	(1,0)	(1,0)	(1,0)	(1,0)	(1,0)	(1,0)	(1,0)	(1,0)	(1,0)	(1,0)	(1,0)	(1,0)	
L1D -110>	(302,46)	(216,85)	(-244,1)	(78,2)	(127,67)	(-124,17)	(230,11)	(-234,1)	(172,2)	(-6,8)	(-242,42)	(-8,1)	(-2,4)	(30,1)	(246,15)	(221,3)	
L1D -109>	(179,6)	(-2,11)	(-40,10)	(204,21)	(-6,11)	(-26,43)	(102,10)	(1,0)	(1,0)	(1,0)	(1,0)	(1,0)	(1,0)	(1,0)	(1,0)	(1,0)	
L1D -108>	(-150,10)	(118,41)	(96,88)	(212,19)	(-46,34)	(-244,5)	(116,25)	(-212,8)	(290,31)	(100,9)	(-230,1)	(12,7)	(170,8)	(332,6)	(-86,13)	(10,4)	
L1D -107>	(-2,1)	(1,0)	(1,0)	(1,0)	(1,0)	(1,0)	(1,0)	(1,0)	(1,0)	(1,0)	(1,0)	(1,0)	(1,0)	(1,0)	(1,0)	(1,0)	
L1D -106>	(104,106)	(-50,95)	(-10,13)	(232,1)	(127,2)	(16,5)	(308,25)	(184,5)	(100,7)	(-138,1)	(122,46)	(-214,1)	(136,2)	(96,33)	(88,3)	(10,14)	
L1D -105>	(-20,77)	(-2,0)	(103,1)	(1,0)	(1,0)	(1,0)	(1,0)	(1,0)	(1,0)	(1,0)	(1,0)	(1,0)	(1,0)	(1,0)	(1,0)	(1,0)	
L1D -104>	(-6,9)	(102,1)	(96,118)	(-8,9)	(214,9)	(28,1)	(-10,2)	(-2,7)	(-46,0)	(-70,1)	(14,7)	(200,1)	(302,3)	(-294,20)	(112,2)	(68,2)	
L1D -103>	(9,13)	(213,2)	(169,20)	(319,7)	(1,0)	(1,0)	(1,0)	(1,0)	(1,0)	(1,0)	(1,0)	(1,0)	(1,0)	(1,0)	(1,0)	(1,0)	
L1D -102>	(-36,47)	(86,79)	(10,50)	(184,5)	(116,50)	(58,28)	(74,55)	(-12,14)	(324,7)	(-234,35)	(316,1)	(108,58)	(100,1)	(-24,2)	(72,6)	(62,8)	
L1D -101>	(201,2)	(-121,21)	(115,20)	(-6,27)	(103,1)	(1,0)	(1,0)	(1,0)	(1,0)	(1,0)	(1,0)	(1,0)	(1,0)	(1,0)	(1,0)	(1,0)	
L1D -100>	(308,93)	(104,8)	(108,18)	(218,1)	(-234,1)	(34,3)	(322,4)	(98,4)	(28,6)	(10,4)	(-222,3)	(186,18)	(14,46)	(-10,2)	(-48,6)	(212,3)	
L1D -99>	(2,7)	(-168,35)	(95,32)	(-2,8)	(1,0)	(1,0)	(1,0)	(1,0)	(1,0)	(1,0)	(1,0)	(1,0)	(1,0)	(1,0)	(1,0)	(1,0)	
L1D -98>	(96,123)	(-92,100)	(70,6)	(140,26)	(-112,22)	(68,7)	(50,10)	(-85,5)	(-87,11)	(84,32)	(94,7)	(-2,8)	(-91,1)	(274,9)	(66,9)	(152,29)	
L1D -97>	(-122,121)	(95,5)	(-4,17)	(-105,21)	(-2,8)	(-1,1)	(-186,18)	(99,0)	(4,0)	(-170,9)	(32,13)	(0,39)	(-178,5)	(1,0)	(1,0)	(1,0)	
L1D -96>	(132,94)	(198,9)	(-42,32)	(-63,85)	(148,9)	(44,79)	(29,3)	(-2,5)	(8,8)	(20,1)	(62,6)	(56,4)	(-46,9)	(110,11)	(244,7)	(94,4)	
L1D -95>	(-4,13)	(-37,6)	(17,15)	(213,3)	(93,4)	(-2,3)	(9,1)	(75,9)	(261,21)	(-180,6)	(-23,12)	(-6,5)	(263,20)	(-8,12)	(-122,4)	(167,11)	
L1D -94>	(-228,1)	(96,21)	(-70,124)	(238,3)	(30,102)	(176,14)	(-120,2)	(305,7)	(-30,36)	(2,2)	(216,4)	(120,14)	(92,11)	(116,8)	(28,36)	(-2,4)	
L1D -93>	(-174,3)	(-127,5)	(-2,4)	(-190,15)	(-4,3)	(-52,2)	(-8,119)	(-126,0)	(28,5)	(-6,3)	(213,2)	(95,1)	(175,1)	(1,0)	(1,0)	(1,0)	
L1D -92>	(96,70)	(52,31)	(-7,13)	(-30,74)	(20,96)	(160,73)	(18,86)	(278,1)	(24,24)	(-168,7)	(28,41)	(36,8)	(74,2)	(26,40)	(-28,81)	(-138,3)	
L1D -91>	(321,18)	(-85,54)	(-2,6)	(213,2)	(3,25)	(17,6)	(-184,5)	(95,7)	(93,1)	(1,0)	(1,0)	(1,0)	(1,0)	(1,0)	(1,0)	(1,0)	
L1D -90>	(264,15)	(254,81)	(-62,7)	(-128,11)	(-242,2)	(2,6)	(-34,49)	(-8,76)	(-41,4)	(30,13)	(12,1)	(88,5)	(-228,2)	(-36,40)	(-14,2)	(36,24)	
L1D -89>	(1,27)	(9,22)	(15,20)	(-9,13)	(146,10)	(12,29)	(-8,10)	(1,0)	(1,0)	(1,0)	(1,0)	(1,0)	(1,0)	(1,0)	(1,0)	(1,0)	
L1D -88>	(48,78)	(330,1)	(36,9)	(-26,16)	(-96,5)	(-32,25)	(-120,14)	(-124,23)	(232,49)	(28,16)	(-98,16)	(212,5)	(32,6)	(92,23)	(-102,6)	(1,1)	
L1D -87>	(1,88)	(2,5)	(32,10)	(1,0)	(1,0)	(1,0)	(1,0)	(1,0)	(1,0)	(1,0)	(1,0)	(1,0)	(1,0)	(1,0)	(1,0)	(1,0)	
L1D -86>	(12,2)	(-58,88)	(-102,7)	(-294,33)	(-88,61)	(210,10)	(-26,45)	(-120,2)	(28,13)	(324,3)	(70,3)	(-41,1)	(14,1)	(238,1)	(-146,4)	(302,31)	
L1D -85>	(-1,84)	(12,39)	(-125,0)	(9,0)	(103,0)	(2,7)	(-126,3)	(1,0)	(1,0)	(1,0)	(1,0)	(1,0)	(1,0)	(1,0)	(1,0)	(1,0)	
L1D -84>	(172,25)	(274,13)	(232,3)	(291,11)	(322,10)	(13,70)	(64,5)	(-87,1)	(145,1)	(98,3)	(36,6)	(116,8)	(146,8)	(82,20)	(66,14)	(-2,4)	
L1D -83>	(81,40)	(-1,76)	(83,39)	(0,2)	(167,0)	(1,0)	(1,0)	(1,0)	(1,0)	(1,0)	(1,0)	(1,0)	(1,0)	(1,0)	(1,0)	(1,0)	
L1D -82>	(84,93)	(1,65)	(-2,13)	(88,6)	(2,3)	(238,1)	(324,2)	(48,1)	(-206,0)	(76,0)	(-250,0)	(-7,0)	(268,5)	(74,1)	(-26,0)	(246,11)	
L1D -81>	(81,92)	(0,8)	(78,0)	(1,0)	(1,0)	(1,0)	(1,0)	(1,0)	(1,0)	(1,0)	(1,0)	(1,0)	(1,0)	(1,0)	(1,0)	(1,0)	
L1D -80>	(96,25)	(318,83)	(-22,30)	(16,32)	(-11,18)	(280,4)	(188,20)	(-14,1)	(1,80)	(-88,11)	(102,6)	(-96,3)	(272,5)	(-138,7)	(246,13)	(-230,5)	
L1D -79>	(-204,31)	(22,18)	(-130,77)	(78,1)	(1,0)	(1,0)	(1,0)	(1,0)	(1,0)	(1,0)	(1,0)	(1,0)	(1,0)	(1,0)	(1,0)	(1,0)	
L1D -78>	(246,10)	(278,104)	(114,60)	(-44,64)	(308,39)	(128,27)	(-12,1)	(-70,21)	(-41,52)	(86,16)	(338,2)	(12,1)	(130,7)	(14,13)	(172,23)	(192,1)	
L1D -77>	(13,80)	(69,0)	(1,0)	(1,0)	(1,0)	(1,0)	(1,0)	(1,0)	(1,0)	(1,0)	(1,0)	(1,0)	(1,0)	(1,0)	(1,0)	(1,0)	
L1D -76>	(-130,95)	(34,1)	(138,108)	(-13,107)	(-246,3)	(338,3)	(-48,9)	(104,51)	(-56,2)	(48,18)	(98,7)	(7,18)	(72,4)	(238,1)	(220,1)	(78,2)	
L1D -75>	(-59,52)	(1,7)	(319,4)	(1,0)	(1,0)	(1,0)	(1,0)	(1,0)	(1,0)	(1,0)	(1,0)	(1,0)	(1,0)	(1,0)	(1,0)	(1,0)	
L1D -74>	(6,5)	(-36,50)	(44,87)	(-22,7)	(-48,10)	(-96,19)	(8,9)	(-26,20)	(74,19)	(285,3)	(188,13)	(176,7)	(-28,32)	(-50,5)	(72,3)	(-16,1)	
L1D -73>	(67,108)	(-177,0)	(-23,67)	(-21,7)	(69,7)	(-59,7)	(-20,1)	(99,1)	(1,0)	(1,0)	(1,0)	(1,0)	(1,0)	(1,0)	(1,0)	(1,0)	
L1D -72>	(-198,13)	(208,25)	(-174,21)	(82,1)	(72,56)	(-7,80)	(120,3)	(1,3)	(-134,3)	(106,24)	(248,21)	(158,2)	(34,25)	(15,1)	(377,13)	(118,19)	
L1D -71>	(-1,6)	(-86,55)	(-138,10)	(-88,3)	(-234,53)	(71,8)	(-142,1)	(-21,64)	(16,10)	(70,55)	(36,20)	(-20,13)	(-40,9)	(33,3)	(1,0)	(1,0)	
L1D -70>	(294,5)	(-70,80)	(154,46)	(16,1)	(28,16)	(70,6)	(310,30)	(244,3)	(68,7)	(285,1)	(-38,27)	(246,1)	(118,7)	(-68,7)	(-2,8)	(144,49)	
L1D -69>	(1,120)	(-7,4)	(95,3)	(12,38)	(99,1)	(-135,1)	(1,0)	(1,0)	(1,0)	(1,0)	(1,0)	(1,0)	(1,0)	(1,0)	(1,0)	(1,0)	
L1D -68>	(-2,17)	(54,3)	(-8,5)	(30,20)	(-63,1)	(-6,9)	(80,2)	(11,11)	(78,2)	(-4,74)	(70,1)	(8,1)	(84,7)	(184,2)	(106,5)	(150,4)	
L1D -67>	(-138,76)	(1,68)	(119,0)	(-108,1)	(-238,0)	(-274,8)	(12,15)	(-29,1)	(293,1)	(319,0)	(1,0)	(1,0)	(1,0)	(1,0)	(1,0)	(1,0)	
L1D -66>	(-168,16)	(-28,9)	(-6,20)	(92,41)	(12,95)	(-26,78)	(-18,9)	(62,22)	(-54,19)	(-30,1)	(-126,4)	(-252,4)	(-90,33)	(28,17)	(10,9)	(154,4)	
L1D -65>	(-218,23)	(67,6)	(69,2)	(-154,70)	(-32,12)	(64,1)	(1,0)	(1,0)	(1,0)	(1,0)	(1,0)	(1,0)	(1,0)	(1,0)	(1,0)	(1,0)	
L1D -64>	(62,8)	(66,3)	(248,60)	(90,82)	(-136,58)	(-2,1)	(10,10)	(2,22)	(230,4)	(-270,7)	(-16,4)	(124,3)	(86,26)	(190,7)	(102,8)	(-140,6)	
L1D -63>	(141,77)	(95,68)	(-184,14)	(-137,0)	(-109,0)	(85,0)	(-154,0)	(1,0)	(0,1)	(-177,5)	(344,0)	(1,0)	(1,0)	(1,0)	(1,0)	(1,0)	
L1D -62>	(54,16)	(-8,30)	(-6,18)	(-72,7)	(90,65)	(-32,72)	(-148,5)	(-110,1)	(-298,3)	(-190,4)	(-224,4)	(48,4)	(156,17)	(-246,1)	(146,2)	(344,7)	
L1D -61>	(-1,11)	(-122,37)	(-84,69)	(-186,31)	(32,25)	(1,0)	(1,0)	(1,0)	(1,0)	(1,0)	(1,0)	(1,0)	(1,0)	(1,0)	(1,0)	(1,0)	
L1D -60>	(46,43)	(-140,108)	(290,23)	(188,30)	(-8,68)	(-264,7)	(-240,1)	(90,14)	(58,77)	(-10,45)	(74,4)	(195,22)	(44,12)	(-224,18)	(212,9)	(240,24)	
L1D -59>	(-127,12)	(36,73)	(-235,85)	(268,47)	(152,10)	(124,1)	(1,0)	(1,0)	(1,0)	(1,0)	(1,0)	(1,0)	(1,0)	(1,0)	(1,0)	(1,0)	
L1D -58>	(-42,29)	(48,75)	(115,85)	(-100,1)	(102,75)	(-58,73)	(118,83)	(90,6)	(-186,2)	(-46,12)	(172,7)	(-18,6)	(68,6)	(-10,38)	(220,2)	(16,5)	
L1D -57>	(-127,0)	(-21,31)	(159,36)	(-20,95)	(-23,4)	(1,0)	(1,0)	(1,0)	(1,0)	(1,0)	(1,0)	(1,0)	(1,0)	(1,0)	(1,0)	(1,0)	
L1D -56>	(-22,34)	(16,52)	(214,20)	(102,5)	(-8,105)	(-34,27)	(156,23)	(-6,38)	(40,1)	(-184,13)	(-108,5)	(58,79)	(14,13)	(316,2)	(80,17)	(-42,12)	
L1D -55>	(-247,22)	(133,86)	(-154,42)	(-76,9)	(13,1)	(-13,1)	(1,0)	(1,0)	(1,0)	(1,0)	(1,0)	(1,0)	(1,0)	(1,0)	(1,0)	(1,0)	
L1D -54>	(-36,8)	(318,109)	(-132,9)	(-74,24)	(146,1)	(-72,24)	(-272,19)	(38,33)	(47,3)	(-180,1)	(22,2)	(-140,7)	(352,3)	(206,2)	(56,1)	(-98,24)	
L1D -53>	(49,3)	(1,1)	(48,107)	(-1,1)	(1,0)	(1,0)	(1,0)	(1,0)	(1,0)	(1,0)	(1,0)	(1,0)	(1,0)	(1,0)	(1,0)	(1,0)	
L1D -52>	(-30,4)	(-98,93)	(-56,4)	(-52,1)	(-144,1)	(-32,93)	(-140,2)	(147,11)	(-258,5)	(-1,9)	(-36,16)	(47,8)	(-114,7)	(-15,7)	(278,24)	(13,14)	
L1D -51>	(-43,24)	(20,9)	(-1,1)	(1,0)	(1,0)	(1,0)	(1,0)	(1,0)	(1,0)	(1,0)	(1,0)	(1,0)	(1,0)	(1,0)	(1,0)	(1,0)	
L1D -50>	(272,119)	(-80,105)	(240,47)	(52,2)	(56,6)	(4,6)	(200,5)	(-70,102)	(-208,3)	(16,16)	(-96,5)	(-38,10)	(186,4)	(-122,5)	(24,40)	(-234,31)	
L1D -49>	(1,120)	(-88,0)	(146,0)	(148,2)	(12,22)	(-1,22)	(1,0)	(1,0)	(1,0)	(1,0)	(1,0)	(1,0)	(1,0)	(1,0)	(1,0)	(1,0)	
L1D -48>	(16,109)	(46,118)	(-2,14)	(51,26)	(150,1)	(10,27)	(-148,2)	(38,24)	(-64,10)	(2,5)	(47,13)	(-220,9)	(-146,14)	(36,3)	(-106,31)	(146,4)	
L1D -47>	(2,11)	(51,67)	(43,0)	(45,0)	(60,6)	(46,5)	(-1,0)	(147,0)	(48,1)	(1,0)	(1,0)	(1,0)	(1,0)	(1,0)	(1,0)	(1,0)	
L1D -46>	(-92,127)	(266,65)	(-126,1)	(-222,25)	(-76,11)	(-250,7)	(-148,43)	(-244,16)	(-108,61)	(265,11)	(12,6)	(50,25)	(36,11)	(-88,8)	(51,6)	(231,9)	
L1D -45>	(2,1)	(-204,72)	(-3,23)	(10,5)	(144,0)	(1,0)	(1,0)	(1,0)	(1,0)	(1,0)	(1,0)	(1,0)	(1,0)	(1,0)	(1,0)	(1,0)	
L1D -44>	(-108,41)	(-12,32)	(30,14)	(46,106)	(42,10)	(-196,23)	(322,27)	(-234,27)	(150,1)	(74,4)	(94,5)	(62,5)	(-86,17)	(-142,2)	(-60,5)	(50,14)	
L1D -43>	(-92,97)	(-260,2)	(44,0)	(94,1)	(42,0)	(-25,0)	(1,0)	(-27,0)	(1,0)	(1,0)	(1,0)	(1,0)	(1,0)	(1,0)	(1,0)	(1,0)	
L1D -42>	(-4,97)	(41,5)	(-12,1)	(-170,4)	(294,1)	(-62,1)	(0,23)	(-24,2)	(336,2)	(84,12)	(-356,5)	(-40,7)	(234,1)	(282,1)	(134,9)	(-188,6)	
L1D -41>	(25,69)	(123,4)	(131,0)	(142,2)	(43,0)	(1,0)	(1,0)	(1,0)	(1,0)	(1,0)	(1,0)	(1,0)	(1,0)	(1,0)	(1,0)	(1,0)	
L1D -40>	(-152,94)	(-194,79)	(-196,47)	(-60,94)	(-130,4)	(-1,4)	(128,1)	(-2,76)	(-5,73)	(-176,8)	(-200,7)	(-274,9)	(-280,8)	(-116,5)	(-222,24)	(-238,21)	
L1D -39>	(25,2)	(36,0)	(-1,1)	(-20,72)	(46,0)	(-12,0)	(1,0)	(1,0)	(1,0)	(1,0)	(1,0)	(1,0)	(1,0)	(1,0)	(1,0)	(1,0)	
L1D -38>	(-62,60)	(-86,40)	(-2,17)	(-350,49)	(-66,76)	(-30,25)	(-148,15)	(-272,6)	(-228,5)	(8,1)	(178,10)	(-138,3)	(1,5)	(-18,33)	(76,2)	(36,35)	
L1D -37>	(37,0)	(-28,0)	(1,103)	(-86,0)	(36,1)	(-20,6)	(150,0)	(-21,3)	(1,0)	(1,0)	(1,0)	(1,0)	(1,0)	(1,0)	(1,0)	(1,0)	
L1D -36>	(48,76)	(56,55)	(-67,73)	(66,75)	(34,32)	(-64,6)	(-188,23)	(-72,15)	(-4,5)	(-108,8)	(268,1)	(152,9)	(-238,3)	(-98,3)	(-130,2)	(-194,9)	
L1D -35>	(-171,93)	(1,47)	(-45,19)	(-10,5)	(-136,1)	(33,0)	(31,0)	(-1,0)	(1,0)	(1,0)	(1,0)	(1,0)	(1,0)	(1,0)	(1,0)	(1,0)	
L1D -34>	(-92,71)	(-108,42)	(-272,10)	(-2,59)	(-106,106)	(-234,33)	(-64,1)	(84,38)	(-118,2)	(242,2)	(-162,5)	(4,18)	(-84,1)	(-88,4)	(-24,5)	(-184,6)	
L1D -33>	(35,1)	(-4,1)	(1,0)	(1,0)	(1,0)	(1,0)	(1,0)	(1,0)	(1,0)	(1,0)	(1,0)	(1,0)	(1,0)	(1,0)	(1,0)	(1,0)	
L1D -32>	(58,55)	(-110,51)	(14,69)	(264,9)	(254,7)	(-106,13)	(36,38)	(-5,15)	(128,28)	(-8,56)	(-2,33)	(10,43)	(6,12)	(136,19)	(-78,8)	(-82,1)	
L1D -31>	(408,23)	(-12,92)	(-1,13)	(41,103)	(-272,9)	(31,1)	(20,1)	(1,0)	(1,0)	(1,0)	(1,0)	(1,0)	(1,0)	(1,0)	(1,0)	(1,0)	
L1D -30>	(-35,32)	(398,21)	(50,86)	(104,10)	(-118,42)	(-234,32)	(108,6)	(212,1)	(-37,50)	(112,8)	(28,3)	(-136,16)	(-8,39)	(174,18)	(200,4)	(-62,29)	
L1D -29>	(-308,17)	(74,1)	(33,0)	(31,111)	(26,3)	(-310,0)	(-134,1)	(-174,0)	(17,1)	(46,12)	(-32,1)	(-116,6)	(-122,0)	(116,11)	(-160,1)	(148,6)	
L1D -28>	(238,84)	(38,4)	(31,7)	(-74,25)	(-20,7)	(8,14)	(75,42)	(118,5)	(242,82)	(42,19)	(74,20)	(65,1)	(160,25)	(-140,8)	(34,17)	(-4,13)	
L1D -27>	(97,101)	(-92,0)	(65,0)	(68,0)	(64,0)	(28,0)	(-206,0)	(1,0)	(1,0)	(1,0)	(1,0)	(1,0)	(1,0)	(1,0)	(1,0)	(1,0)	
L1D -26>	(128,1)	(-96,86)	(70,32)	(62,11)	(135,3)	(78,22)	(38,16)	(-30,14)	(48,5)	(358,4)	(10,23)	(294,4)	(-196,20)	(144,8)	(-192,9)	(-60,27)	
L1D -25>	(95,1)	(94,35)	(13,87)	(-122,3)	(9,32)	(216,1)	(215,1)	(69,2)	(-1,1)	(1,0)	(1,0)	(1,0)	(1,0)	(1,0)	(1,0)	(1,0)	
L1D -24>	(-80,51)	(25,63)	(58,44)	(-8,1)	(3,29)	(228,63)	(-144,33)	(140,43)	(2,24)	(9,67)	(18,19)	(-230,16)	(-180,28)	(-258,26)	(-36,31)	(98,3)	
L1D -23>	(2,8)	(18,40)	(290,3)	(31,24)	(-36,41)	(392,77)	(-5,71)	(160,0)	(-39,36)	(182,10)	(-52,15)	(25,13)	(390,4)	(15,1)	(-207,2)	(163,2)	
L1D -22>	(96,94)	(58,11)	(122,9)	(94,1)	(10,1)	(-64,9)	(38,39)	(236,13)	(142,14)	(-12,3)	(254,4)	(118,4)	(212,13)	(104,14)	(-132,4)	(258,3)	
L1D -21>	(13,36)	(8,46)	(-4,3)	(-1,3)	(24,0)	(5,84)	(312,0)	(156,3)	(160,2)	(-18,0)	(6,2)	(290,1)	(46,0)	(7,1)	(96,1)	(4,0)	
L1D -20>	(159,19)	(229,63)	(22,72)	(-1,51)	(-4,9)	(289,34)	(17,121)	(143,22)	(5,24)	(95,1)	(-62,5)	(155,18)	(14,24)	(18,37)	(311,54)	(162,27)	
L1D -19>	(10,22)	(6,57)	(-9,86)	(152,24)	(8,4)	(15,6)	(14,3)	(36,5)	(-4,3)	(176,10)	(5,2)	(11,0)	(18,2)	(-1,3)	(-5,0)	(17,1)	
L1D -18>	(6,56)	(-308,91)	(-90,39)	(-122,6)	(-63,100)	(15,63)	(-94,25)	(-92,29)	(-82,16)	(16,35)	(134,17)	(-11,6)	(54,70)	(60,68)	(12,1)	(-124,21)	
L1D -17>	(-1,106)	(-176,1)	(48,1)	(15,105)	(-274,6)	(152,5)	(-6,1)	(209,1)	(129,0)	(-8,0)	(-7,0)	(1,0)	(1,0)	(1,0)	(1,0)	(1,0)	
L1D -16>	(35,28)	(-72,35)	(54,52)	(-126,22)	(-16,1)	(276,89)	(46,87)	(60,4)	(30,35)	(256,5)	(32,2)	(246,5)	(8,89)	(10,5)	(68,8)	(-24,16)	
L1D -15>	(87,87)	(-1,13)	(5,1)	(-25,5)	(17,11)	(-185,8)	(18,30)	(9,113)	(95,6)	(-5,58)	(6,8)	(-191,9)	(14,10)	(8,29)	(-29,13)	(-339,5)	
L1D -14>	(218,23)	(-100,1)	(-121,40)	(-5,92)	(60,14)	(28,30)	(-240,5)	(66,4)	(322,4)	(-46,6)	(-124,9)	(162,17)	(52,20)	(-2,4)	(4,8)	(164,22)	
L1D -13>	(-12,19)	(12,8)	(-8,78)	(-10,4)	(10,0)	(4,0)	(14,0)	(11,0)	(1,0)	(1,0)	(1,0)	(1,0)	(1,0)	(1,0)	(1,0)	(1,0)	
L1D -12>	(-130,35)	(-46,19)	(18,22)	(-7,107)	(66,1)	(-256,5)	(106,5)	(9,17)	(88,5)	(27,7)	(-8,10)	(110,11)	(-84,2)	(-38,7)	(-121,7)	(-10,1)	
L1D -11>	(17,20)	(73,0)	(6,5)	(-7,77)	(-4,0)	(-199,0)	(-9,8)	(-5,53)	(77,0)	(10,0)	(-19,3)	(8,1)	(89,0)	(91,0)	(-6,0)	(1,0)	
L1D -10>	(-18,1)	(-146,4)	(66,5)	(318,10)	(114,6)	(-6,5)	(-5,80)	(22,2)	(-52,11)	(106,8)	(178,4)	(62,1)	(4,5)	(270,5)	(-266,2)	(212,6)	
L1D -9>	(12,26)	(4,27)	(-1,43)	(8,37)	(-7,95)	(-43,10)	(18,88)	(6,15)	(-16,25)	(17,80)	(-11,27)	(24,2)	(3,2)	(-14,7)	(14,10)	(151,13)	
L1D -8>	(-32,38)	(214,14)	(-2,44)	(-4,10)	(104,4)	(14,83)	(-48,25)	(23,31)	(-8,41)	(106,1)	(-10,34)	(-60,3)	(110,5)	(15,24)	(-7,32)	(5,18)	
L1D -7>	(7,117)	(99,1)	(15,104)	(22,60)	(176,13)	(6,13)	(82,7)	(10,7)	(-9,42)	(-36,6)	(13,12)	(-4,3)	(9,3)	(96,5)	(89,1)	(12,4)	
L1D -6>	(-396,1)	(3,114)	(-12,13)	(-2,33)	(94,12)	(212,4)	(8,10)	(128,13)	(314,16)	(336,10)	(-63,1)	(-7,3)	(228,4)	(2,1)	(48,23)	(-26,10)	
L1D -5>	(138,47)	(12,13)	(8,23)	(17,114)	(14,48)	(-28,44)	(15,13)	(-1,24)	(-9,4)	(125,5)	(-3,1)	(-8,20)	(127,3)	(18,53)	(6,19)	(129,6)	
L1D -4>	(26,19)	(-342,16)	(-76,29)	(2,4)	(-172,15)	(-58,37)	(174,51)	(-2,7)	(-4,8)	(-21,21)	(347,15)	(9,15)	(-48,10)	(3,65)	(103,23)	(-154,1)	
L1D -3>	(0,30)	(-342,19)	(4,111)	(-7,43)	(128,1)	(136,19)	(19,9)	(-170,29)	(175,13)	(-340,2)	(174,40)	(-169,5)	(47,6)	(176,5)	(-1,3)	(346,2)	
L1D -2>	(-2,41)	(2,8)	(-170,40)	(-18,39)	(345,32)	(4,108)	(13,60)	(106,16)	(3,28)	(-64,20)	(-1,24)	(-171,30)	(-4,1)	(-16,11)	(0,21)	(1,8)	
L1D -1>	(-2,6)	(171,4)	(-343,0)	(-172,11)	(169,3)	(82,7)	(-1,65)	(-170,22)	(0,5)	(-171,34)	(2,7)	(4,20)	(3,9)	(174,8)	(173,5)	(172,21)	
L1D 0>	(0,85)	(2,2)	(-3,2)	(246,1)	(-82,0)	(-1,18)	(-172,2)	(-195,2)	(-48,2)	(-5,2)	(7,2)	(-7,12)	(81,5)	(195,1)	(1,1)	(-46,0)	
L1D 1>	(1,80)	(411,0)	(343,4)	(168,1)	(172,1)	(2,1)	(73,0)	(-1,3)	(-346,0)	(-172,1)	(170,2)	(-2,2)	(0,2)	(-175,0)	(11,1)	(171,0)	
L1D 2>	(-171,6)	(1,6)	(-173,20)	(-1,54)	(-346,17)	(-172,77)	(-3,10)	(-174,27)	(177,21)	(342,1)	(8,13)	(-2,23)	(0,23)	(169,22)	(2,1)	(171,18)	
L1D 3>	(2,42)	(1,55)	(-344,15)	(-172,5)	(-173,73)	(-2,15)	(342,9)	(-175,6)	(-1,60)	(6,2)	(171,31)	(-174,13)	(173,1)	(170,31)	(-345,1)	(344,12)	
L1D 4>	(-6,25)	(-346,16)	(-174,72)	(-344,5)	(170,27)	(-175,5)	(8,1)	(-176,97)	(168,110)	(-90,6)	(2,7)	(-224,10)	(-1,42)	(-173,8)	(-14,5)	(6,7)	
L1D 5>	(13,99)	(22,4)	(1,3)	(3,2)	(-1,4)	(18,70)	(9,59)	(-44,3)	(172,1)	(-7,1)	(-172,1)	(12,1)	(-2,0)	(-4,0)	(6,0)	(-3,0)	
L1D 6>	(-42,1)	(94,63)	(26,24)	(-7,64)	(-128,64)	(-90,11)	(-84,6)	(18,23)	(4,5)	(-10,80)	(8,5)	(14,65)	(88,29)	(-11,9)	(-15,27)	(64,6)	
L1D 7>	(-7,12)	(0,64)	(70,4)	(-195,0)	(-154,0)	(-172,0)	(-1,1)	(172,0)	(-109,0)	(1,4)	(-2,0)	(-267,0)	(-99,0)	(1,0)	(1,0)	(1,0)	
L1D 8>	(64,7)	(-102,1)	(60,6)	(-26,3)	(94,34)	(194,51)	(-62,11)	(9,64)	(12,11)	(-19,75)	(10,39)	(6,61)	(-40,4)	(-23,9)	(-80,30)	(115,5)	
L1D 9>	(62,4)	(1,32)	(13,15)	(18,80)	(-11,66)	(4,11)	(72,1)	(-1,11)	(-18,54)	(-16,18)	(12,76)	(9,16)	(-3,8)	(64,4)	(3,7)	(-8,4)	
L1D 10>	(308,29)	(360,84)	(106,4)	(8,3)	(-194,39)	(-14,39)	(-19,73)	(-12,13)	(-2,6)	(-8,1)	(-18,16)	(80,68)	(-66,22)	(56,2)	(-42,2)	(6,9)	
L1D 11>	(-3,46)	(-20,116)	(133,24)	(-21,3)	(123,1)	(7,0)	(10,1)	(-7,1)	(-10,0)	(-4,0)	(1,0)	(1,0)	(1,0)	(1,0)	(1,0)	(1,0)	
L1D 12>	(-24,14)	(207,1)	(50,4)	(-19,52)	(-20,68)	(52,10)	(133,3)	(-21,1)	(28,6)	(76,15)	(98,11)	(320,5)	(138,4)	(103,9)	(-7,6)	(-23,11)	
L1D 13>	(-20,78)	(-5,15)	(8,15)	(86,0)	(90,0)	(-41,6)	(-15,7)	(-11,0)	(-60,0)	(-12,0)	(1,0)	(1,0)	(1,0)	(1,0)	(1,0)	(1,0)	
L1D 14>	(-11,42)	(69,1)	(78,88)	(14,8)	(6,26)	(-278,45)	(75,18)	(-7,43)	(-78,9)	(28,40)	(-3,23)	(-50,11)	(12,86)	(16,3)	(66,51)	(20,17)	
L1D 15>	(-127,45)	(-3,75)	(47,26)	(81,33)	(65,40)	(67,33)	(83,30)	(69,39)	(75,29)	(0,64)	(-5,5)	(-10,1)	(-1,5)	(26,7)	(-9,16)	(-6,2)	
L1D 16>	(-88,89)	(-138,10)	(-11,17)	(-4,34)	(172,5)	(120,13)	(-2,29)	(-10,7)	(192,12)	(-34,42)	(272,8)	(-120,1)	(-172,4)	(80,5)	(-180,10)	(184,4)	
L1D 17>	(-16,4)	(-11,92)	(70,6)	(78,10)	(62,1)	(142,24)	(-3,15)	(145,4)	(19,12)	(1,27)	(44,4)	(-216,4)	(74,2)	(138,23)	(-18,14)	(126,22)	
L1D 18>	(4,1)	(-19,27)	(-12,52)	(202,32)	(-58,19)	(72,16)	(-11,9)	(8,21)	(-9,90)	(372,4)	(-4,4)	(-7,19)	(138,2)	(-6,13)	(126,3)	(-252,5)	
L1D 19>	(-163,1)	(116,0)	(-1,8)	(-4,87)	(-235,24)	(55,0)	(15,0)	(110,1)	(59,0)	(-13,0)	(-303,1)	(114,1)	(1,0)	(1,0)	(1,0)	(1,0)	
L1D 20>	(-314,4)	(-22,105)	(-56,8)	(-104,13)	(-24,17)	(74,4)	(-21,3)	(4,85)	(-15,83)	(166,53)	(138,2)	(-292,5)	(-138,5)	(228,35)	(-6,16)	(-180,1)	
L1D 21>	(-1,101)	(70,18)	(16,1)	(-8,1)	(14,2)	(4,2)	(-20,1)	(1,0)	(1,0)	(1,0)	(1,0)	(1,0)	(1,0)	(1,0)	(1,0)	(1,0)	
L1D 22>	(300,1)	(140,20)	(-18,5)	(-23,71)	(336,2)	(80,27)	(73,31)	(159,48)	(367,53)	(14,2)	(10,1)	(-5,7)	(94,6)	(236,47)	(369,19)	(338,8)	
L1D 23>	(-77,22)	(-177,0)	(67,0)	(-9,93)	(5,0)	(-64,0)	(65,1)	(-1,0)	(1,0)	(1,0)	(1,0)	(1,0)	(1,0)	(1,0)	(1,0)	(1,0)	
L1D 24>	(-8,90)	(70,1)	(290,28)	(-52,24)	(-30,5)	(302,3)	(-144,7)	(-98,4)	(206,5)	(-112,3)	(-32,4)	(240,18)	(-74,15)	(210,4)	(-194,8)	(6,11)	
L1D 25>	(70,13)	(-4,1)	(-1,0)	(102,3)	(106,62)	(-77,93)	(7,1)	(-6,13)	(-8,101)	(90,2)	(-44,9)	(92,13)	(88,3)	(-64,0)	(1,0)	(1,0)	
L1D 26>	(268,16)	(-68,11)	(-272,10)	(-118,7)	(-154,72)	(-1,82)	(-222,25)	(70,9)	(-30,1)	(116,41)	(-86,13)	(68,12)	(-46,3)	(-74,27)	(16,11)	(-18,16)	
L1D 27>	(-9,67)	(70,2)	(367,3)	(-23,3)	(-1,0)	(-13,0)	(369,1)	(1,0)	(1,0)	(1,0)	(1,0)	(1,0)	(1,0)	(1,0)	(1,0)	(1,0)	
L1D 28>	(-54,24)	(-8,6)	(76,39)	(-2,99)	(66,27)	(-18,8)	(-74,18)	(-30,20)	(68,1)	(2,54)	(302,53)	(240,31)	(-24,73)	(236,31)	(-14,11)	(182,40)	
L1D 29>	(-12,10)	(-145,23)	(87,4)	(-63,65)	(119,80)	(1,0)	(1,0)	(1,0)	(1,0)	(1,0)	(1,0)	(1,0)	(1,0)	(1,0)	(1,0)	(1,0)	
L1D 30>	(66,121)	(290,35)	(-136,8)	(202,22)	(82,16)	(146,30)	(-36,1)	(-24,5)	(10,122)	(90,10)	(74,10)	(-148,32)	(-166,8)	(-32,13)	(20,8)	(212,5)	
L1D 31>	(-242,85)	(-322,1)	(3,1)	(-32,0)	(-30,0)	(-339,16)	(-185,49)	(-84,4)	(-248,1)	(44,8)	(-48,5)	(15,12)	(-205,2)	(-191,2)	(-3,2)	(-240,3)	
L1D 32>	(138,19)	(290,24)	(106,14)	(-154,111)	(74,102)	(4,16)	(-116,87)	(222,24)	(140,1)	(-142,3)	(-10,48)	(-272,6)	(232,13)	(-240,30)	(200,20)	(-158,6)	
L1D 33>	(41,114)	(-37,8)	(38,7)	(-350,3)	(-3,1)	(1,0)	(1,0)	(1,0)	(1,0)	(1,0)	(1,0)	(1,0)	(1,0)	(1,0)	(1,0)	(1,0)	
L1D 34>	(50,19)	(-126,22)	(238,64)	(-314,1)	(-60,0)	(62,3)	(-330,1)	(-20,3)	(-222,32)	(-182,52)	(-36,5)	(-350,28)	(41,17)	(-130,3)	(-322,4)	(-352,1)	
L1D 35>	(-247,0)	(59,1)	(-7,0)	(-235,121)	(-206,13)	(55,0)	(-129,12)	(-71,23)	(-1,57)	(35,20)	(-161,14)	(1,1)	(1,0)	(1,0)	(1,0)	(1,0)	
L1D 36>	(-308,66)	(-38,77)	(-176,13)	(-274,12)	(-154,7)	(-254,11)	(-234,1)	(-272,13)	(-322,8)	(228,20)	(56,5)	(-56,12)	(-100,7)	(206,32)	(-144,8)	(-4,6)	
L1D 37>	(145,6)	(-123,53)	(-1,3)	(-42,2)	(2,1)	(6,1)	(3,1)	(1,0)	(1,0)	(1,0)	(1,0)	(1,0)	(1,0)	(1,0)	(1,0)	(1,0)	
L1D 38>	(-50,74)	(-322,50)	(136,55)	(200,4)	(-80,46)	(-102,13)	(-20,1)	(48,30)	(-104,49)	(-24,21)	(80,17)	(-26,8)	(-96,11)	(-160,5)	(-106,4)	(128,25)	
L1D 39>	(-42,3)	(2,1)	(1,0)	(1,0)	(1,0)	(1,0)	(1,0)	(1,0)	(1,0)	(1,0)	(1,0)	(1,0)	(1,0)	(1,0)	(1,0)	(1,0)	
L1D 40>	(-24,34)	(-50,72)	(-18,79)	(16,7)	(-228,1)	(206,6)	(-2,126)	(-104,106)	(-42,11)	(-10,61)	(-405,51)	(-264,33)	(-96,2)	(-292,2)	(2,2)	(-220,7)	
L1D 41>	(-1,1)	(-346,96)	(-42,11)	(-124,0)	(-43,0)	(-44,0)	(1,0)	(1,0)	(1,0)	(1,0)	(1,0)	(1,0)	(1,0)	(1,0)	(1,0)	(1,0)	
L1D 42>	(-62,1)	(-186,21)	(92,11)	(320,20)	(256,55)	(-14,5)	(-42,5)	(194,91)	(70,3)	(8,19)	(-22,29)	(-278,51)	(-12,3)	(-56,1)	(-38,17)	(252,4)	
L1D 43>	(-49,111)	(121,31)	(-1,1)	(-4,1)	(1,2)	(-42,7)	(-40,1)	(-39,1)	(-69,1)	(-44,1)	(0,1)	(1,0)	(1,0)	(1,0)	(1,0)	(1,0)	
L1D 44>	(76,0)	(-2,5)	(-56,0)	(204,69)	(-4,3)	(128,0)	(-240,4)	(78,0)	(-49,10)	(-361,0)	(296,5)	(-10,0)	(-62,27)	(308,13)	(-346,5)	(66,0)	
L1D 45>	(4,1)	(-48,1)	(-2,1)	(-1,1)	(-346,21)	(-72,10)	(-42,7)	(-3,1)	(1,0)	(1,0)	(1,0)	(1,0)	(1,0)	(1,0)	(1,0)	(1,0)	
L1D 46>	(-152,7)	(150,1)	(12,7)	(81,77)	(-280,49)	(149,2)	(98,43)	(-44,1)	(-32,3)	(130,11)	(185,2)	(-50,4)	(-16,1)	(-15,6)	(-118,2)	(142,4)	
L1D 47>	(-49,88)	(98,9)	(-48,11)	(-37,2)	(-45,7)	(1,1)	(13,3)	(100,1)	(-42,0)	(1,0)	(1,0)	(1,0)	(1,0)	(1,0)	(1,0)	(1,0)	
L1D 48>	(194,78)	(-10,20)	(-58,63)	(-88,9)	(190,19)	(-50,24)	(48,41)	(-168,10)	(-128,11)	(232,10)	(-170,1)	(88,59)	(-30,71)	(-292,9)	(32,12)	(216,6)	
L1D 49>	(-4,6)	(-52,45)	(99,23)	(-5,30)	(-53,2)	(-1,1)	(93,4)	(-42,1)	(95,105)	(-44,1)	(1,0)	(1,0)	(1,0)	(1,0)	(1,0)	(1,0)	
L1D 50>	(-122,1)	(72,2)	(-2,3)	(-250,7)	(-292,13)	(-118,3)	(-182,2)	(124,1)	(-186,71)	(-10,49)	(-114,5)	(26,13)	(-300,5)	(-258,37)	(150,5)	(62,4)	
L1D 51>	(-52,80)	(-5,21)	(-43,54)	(95,90)	(-53,18)	(-4,31)	(1,0)	(1,0)	(1,0)	(1,0)	(1,0)	(1,0)	(1,0)	(1,0)	(1,0)	(1,0)	
L1D 52>	(-88,103)	(-4,17)	(-44,8)	(-2,21)	(70,1)	(-108,4)	(-50,18)	(-144,2)	(-106,2)	(-164,91)	(2,6)	(62,5)	(24,62)	(-302,5)	(-234,3)	(-46,3)	
L1D 53>	(1,0)	(1,0)	(1,0)	(1,0)	(1,0)	(1,0)	(1,0)	(1,0)	(1,0)	(1,0)	(1,0)	(1,0)	(1,0)	(1,0)	(1,0)	(1,0)	
L1D 54>	(-90,3)	(-152,1)	(-2,8)	(-4,16)	(-35,1)	(-202,1)	(-158,98)	(-212,1)	(-126,5)	(-56,4)	(-8,15)	(52,8)	(-194,3)	(8,1)	(-220,2)	(-226,1)	
L1D 55>	(-290,5)	(-48,6)	(-49,10)	(-50,11)	(1,0)	(1,0)	(1,0)	(1,0)	(1,0)	(1,0)	(1,0)	(1,0)	(1,0)	(1,0)	(1,0)	(1,0)	
L1D 56>	(-236,0)	(-40,65)	(-54,3)	(-186,1)	(-152,3)	(-22,0)	(-64,1)	(-324,12)	(-144,0)	(-16,2)	(-258,3)	(-98,0)	(38,1)	(-18,1)	(24,2)	(-332,1)	
L1D 57>	(-31,101)	(-43,3)	(-51,9)	(-1,2)	(1,0)	(1,0)	(1,0)	(1,0)	(1,0)	(1,0)	(1,0)	(1,0)	(1,0)	(1,0)	(1,0)	(1,0)	
L1D 58>	(-24,24)	(-182,46)	(-74,1)	(-44,5)	(-174,5)	(-68,28)	(-184,75)	(-258,33)	(-296,3)	(-228,7)	(-70,66)	(-266,5)	(-12,1)	(-268,21)	(56,21)	(34,84)	
L1D 59>	(-66,30)	(-294,22)	(-362,1)	(-268,2)	(45,10)	(1,0)	(1,0)	(1,0)	(1,0)	(1,0)	(1,0)	(1,0)	(1,0)	(1,0)	(1,0)	(1,0)	
L1D 60>	(-62,31)	(-278,59)	(-66,53)	(6,6)	(-48,41)	(4,115)	(172,34)	(-90,1)	(-72,50)	(210,13)	(26,46)	(-70,16)	(14,49)	(-310,3)	(-38,101)	(-210,18)	
L1D 61>	(-183,14)	(-145,47)	(-247,16)	(-67,121)	(-29,14)	(-1,1)	(-43,1)	(-31,1)	(1,0)	(1,0)	(1,0)	(1,0)	(1,0)	(1,0)	(1,0)	(1,0)	
L1D 62>	(186,42)	(-2,45)	(-34,9)	(-66,8)	(-49,2)	(-58,17)	(-46,3)	(36,24)	(-184,22)	(34,13)	(-80,65)	(-64,5)	(-272,97)	(-220,11)	(-67,1)	(-108,3)	
L1D 63>	(-63,55)	(-247,35)	(-69,113)	(7,2)	(1,0)	(1,0)	(1,0)	(1,0)	(1,0)	(1,0)	(1,0)	(1,0)	(1,0)	(1,0)	(1,0)	(1,0)	
L1D 64>	(148,2)	(160,1)	(-74,2)	(122,18)	(48,64)	(232,65)	(-70,44)	(215,11)	(118,3)	(0,37)	(-69,13)	(-330,5)	(244,29)	(-66,17)	(-46,8)	(154,2)	
L1D 65>	(-67,67)	(-42,0)	(-55,2)	(-31,5)	(-72,4)	(-283,1)	(-124,0)	(1,0)	(1,0)	(1,0)	(1,0)	(1,0)	(1,0)	(1,0)	(1,0)	(1,0)	
L1D 66>	(226,1)	(4,20)	(112,85)	(-88,5)	(-40,103)	(-92,86)	(128,6)	(-224,49)	(-4,14)	(-202,20)	(-194,4)	(-60,15)	(-169,56)	(-18,81)	(194,10)	(-210,10)	
L1D 67>	(-42,1)	(-69,104)	(-2,1)	(26,77)	(-55,0)	(-66,0)	(-126,7)	(-57,7)	(28,3)	(-90,6)	(6,3)	(-96,2)	(-244,1)	(1,0)	(1,0)	(1,0)	
L1D 68>	(240,84)	(-58,5)	(226,79)	(302,20)	(-76,123)	(-20,70)	(-140,15)	(118,34)	(-180,119)	(38,47)	(106,88)	(116,1)	(-290,60)	(-300,15)	(-74,12)	(66,21)	
L1D 69>	(-72,68)	(-79,1)	(-42,0)	(-92,2)	(4,0)	(-57,1)	(1,0)	(1,0)	(1,0)	(1,0)	(1,0)	(1,0)	(1,0)	(1,0)	(1,0)	(1,0)	
L1D 70>	(-32,79)	(64,16)	(-64,8)	(-275,83)	(-210,36)	(-98,1)	(314,16)	(2,50)	(96,1)	(-180,2)	(-218,5)	(-190,3)	(-96,7)	(308,30)	(215,2)	(-2,4)	
L1D 71>	(-38,74)	(-72,5)	(-1,16)	(-206,2)	(1,0)	(1,0)	(1,0)	(1,0)	(1,0)	(1,0)	(1,0)	(1,0)	(1,0)	(1,0)	(1,0)	(1,0)	
L1D 72>	(-86,87)	(-72,33)	(-78,39)	(-38,79)	(48,73)	(-314,4)	(264,4)	(-82,21)	(-170,22)	(60,5)	(30,7)	(112,1)	(10,9)	(114,4)	(175,23)	(158,11)	
L1D 73>	(-23,93)	(1,64)	(-76,78)	(-66,1)	(-55,0)	(-67,0)	(1,0)	(1,0)	(1,0)	(1,0)	(1,0)	(1,0)	(1,0)	(1,0)	(1,0)	(1,0)	
L1D 74>	(12,22)	(2,4)	(-4,88)	(160,117)	(15,1)	(16,98)	(114,23)	(-210,18)	(122,26)	(118,9)	(-272,4)	(-2,6)	(-12,4)	(-345,60)	(-96,36)	(-314,21)	
L1D 75>	(60,103)	(-346,56)	(-57,1)	(186,1)	(-68,0)	(1,0)	(1,0)	(1,0)	(1,0)	(1,0)	(1,0)	(1,0)	(1,0)	(1,0)	(1,0)	(1,0)	
L1D 76>	(-106,76)	(162,1)	(-74,1)	(-294,3)	(-232,1)	(-272,39)	(-117,1)	(-102,1)	(-58,1)	(36,1)	(-228,2)	(-66,4)	(-40,6)	(16,5)	(-132,2)	(-30,38)	
L1D 77>	(-82,52)	(2,122)	(-72,5)	(-84,7)	(-79,1)	(-64,0)	(1,0)	(1,0)	(1,0)	(1,0)	(1,0)	(1,0)	(1,0)	(1,0)	(1,0)	(1,0)	
L1D 78>	(236,12)	(246,2)	(-292,63)	(36,5)	(-148,1)	(-76,16)	(-2,75)	(56,4)	(-180,63)	(-8,4)	(62,3)	(212,3)	(222,1)	(38,1)	(-64,7)	(106,1)	
L1D 79>	(1,0)	(1,0)	(1,0)	(1,0)	(1,0)	(1,0)	(1,0)	(1,0)	(1,0)	(1,0)	(1,0)	(1,0)	(1,0)	(1,0)	(1,0)	(1,0)	
L1D 80>	(-6,3)	(-46,47)	(-310,18)	(-4,4)	(-230,15)	(-98,1)	(-32,67)	(-2,4)	(-182,3)	(-132,9)	(-24,10)	(-216,15)	(-91,1)	(-220,1)	(-314,1)	(94,1)	
L1D 81>	(-82,91)	(-81,24)	(-84,12)	(2,6)	(276,0)	(0,1)	(-71,0)	(1,0)	(1,0)	(1,0)	(1,0)	(1,0)	(1,0)	(1,0)	(1,0)	(1,0)	
L1D 82>	(-184,16)	(-82,70)	(24,40)	(-80,60)	(-332,1)	(-8,5)	(162,33)	(-68,8)	(97,1)	(-57,5)	(-69,5)	(-123,4)	(-60,2)	(-175,1)	(94,1)	(-78,0)	
L1D 83>	(-85,70)	(-83,77)	(60,0)	(-73,2)	(-72,0)	(302,1)	(1,0)	(1,0)	(1,0)	(1,0)	(1,0)	(1,0)	(1,0)	(1,0)	(1,0)	(1,0)	
L1D 84>	(164,4)	(-83,93)	(40,1)	(-230,18)	(14,8)	(-102,2)	(-88,3)	(-57,1)	(142,1)	(-16,4)	(-18,1)	(20,6)	(-154,7)	(207,1)	(-54,1)	(-58,2)	
L1D 85>	(-220,13)	(4,83)	(220,9)	(-210,11)	(17,1)	(236,1)	(1,0)	(1,0)	(1,0)	(1,0)	(1,0)	(1,0)	(1,0)	(1,0)	(1,0)	(1,0)	
L1D 86>	(-18,91)	(144,1)	(158,9)	(232,2)	(-102,6)	(-14,3)	(14,6)	(-308,3)	(-230,4)	(206,6)	(-314,5)	(-110,5)	(4,14)	(120,1)	(-100,9)	(-36,26)	
L1D 87>	(-144,100)	(-112,2)	(94,1)	(58,7)	(28,10)	(8,1)	(1,0)	(1,0)	(1,0)	(1,0)	(1,0)	(1,0)	(1,0)	(1,0)	(1,0)	(1,0)	
L1D 88>	(4,10)	(-230,29)	(-172,22)	(180,12)	(-4,27)	(-128,1)	(26,17)	(-60,20)	(-86,1)	(62,5)	(-184,72)	(70,5)	(88,21)	(-18,3)	(84,62)	(-380,4)	
L1D 89>	(-64,1)	(-127,46)	(-76,52)	(-4,31)	(-71,12)	(60,7)	(-82,3)	(-84,1)	(1,0)	(1,0)	(1,0)	(1,0)	(1,0)	(1,0)	(1,0)	(1,0)	
L1D 90>	(60,21)	(-228,1)	(-2,122)	(-34,48)	(-264,2)	(102,2)	(-38,1)	(-98,1)	(-218,9)	(-302,1)	(62,1)	(-131,5)	(94,3)	(-80,3)	(-36,17)	(-122,14)	
L1D 91>	(-176,1)	(272,11)	(6,32)	(-74,1)	(230,10)	(-290,11)	(-85,21)	(-184,12)	(-78,11)	(-73,10)	(1,1)	(1,0)	(1,0)	(1,0)	(1,0)	(1,0)	
L1D 92>	(-96,51)	(-40,65)	(-304,13)	(-218,3)	(-93,35)	(-98,1)	(-102,1)	(-260,2)	(-224,3)	(-184,3)	(-198,2)	(52,3)	(-206,3)	(80,1)	(-364,2)	(-178,2)	
L1D 93>	(-95,10)	(-167,4)	(-97,21)	(36,1)	(-145,4)	(228,1)	(-220,71)	(-283,8)	(4,11)	(-207,10)	(-10,4)	(-65,1)	(42,0)	(1,0)	(1,0)	(1,0)	
L1D 94>	(-314,120)	(-66,7)	(32,1)	(76,86)	(-116,20)	(30,6)	(26,5)	(116,4)	(-38,5)	(-194,4)	(-204,6)	(-118,9)	(-8,2)	(124,5)	(-74,23)	(-184,14)	
L1D 95>	(92,126)	(-240,1)	(-10,5)	(-232,13)	(-97,2)	(36,4)	(22,8)	(-101,3)	(-148,5)	(-26,1)	(-66,1)	(-76,36)	(-100,14)	(-132,7)	(4,50)	(-272,7)	
L1D 96>	(-18,62)	(98,39)	(-40,90)	(-108,9)	(-62,8)	(-68,9)	(-66,9)	(-76,30)	(-166,7)	(-58,36)	(-162,23)	(110,39)	(8,59)	(-14,1)	(-12,14)	(-218,7)	
L1D 97>	(-29,79)	(-16,39)	(-189,0)	(17,0)	(-203,0)	(-145,3)	(6,2)	(-105,0)	(-283,0)	(-275,1)	(1,0)	(1,0)	(1,0)	(1,0)	(1,0)	(1,0)	
L1D 98>	(176,2)	(-322,65)	(78,58)	(-183,9)	(-286,80)	(34,40)	(-106,1)	(2,11)	(-185,12)	(80,109)	(-189,2)	(-8,16)	(6,19)	(72,53)	(-146,1)	(-114,2)	
L1D 99>	(-100,39)	(-2,13)	(4,104)	(-148,34)	(-283,23)	(-267,39)	(-12,21)	(-90,42)	(-14,31)	(110,38)	(-7,1)	(-86,1)	(1,0)	(1,0)	(1,0)	(1,0)	
L1D 100>	(136,4)	(-102,20)	(-148,1)	(4,26)	(-106,42)	(208,14)	(-108,13)	(-6,7)	(8,78)	(62,58)	(41,1)	(-58,4)	(-84,1)	(108,5)	(100,25)	(-74,12)	
L1D 101>	(-32,2)	(-142,86)	(-224,35)	(1,0)	(1,0)	(1,0)	(1,0)	(1,0)	(1,0)	(1,0)	(1,0)	(1,0)	(1,0)	(1,0)	(1,0)	(1,0)	
L1D 102>	(-48,68)	(116,10)	(-116,122)	(-130,16)	(-330,4)	(-4,19)	(-194,125)	(-62,15)	(-30,4)	(-46,14)	(80,40)	(-268,17)	(-244,30)	(-110,1)	(-50,9)	(-314,12)	
L1D 103>	(-32,104)	(-107,0)	(-105,0)	(2,0)	(66,1)	(-54,1)	(-90,3)	(-8,4)	(-111,4)	(-18,2)	(1,0)	(1,0)	(1,0)	(1,0)	(1,0)	(1,0)	
[...]
L1D 481>	(1,0)	(1,0)	(1,0)	(1,0)	(1,0)	(1,0)	(1,0)	(1,0)	(1,0)	(1,0)	(1,0)	(1,0)	(1,0)	(1,0)	(1,0)	(1,0)	
L1D 482>	(1,0)	(1,0)	(1,0)	(1,0)	(1,0)	(1,0)	(1,0)	(1,0)	(1,0)	(1,0)	(1,0)	(1,0)	(1,0)	(1,0)	(1,0)	(1,0)	
L1D 483>	(1,0)	(1,0)	(1,0)	(1,0)	(1,0)	(1,0)	(1,0)	(1,0)	(1,0)	(1,0)	(1,0)	(1,0)	(1,0)	(1,0)	(1,0)	(1,0)	
L1D 484>	(1,0)	(1,0)	(1,0)	(1,0)	(1,0)	(1,0)	(1,0)	(1,0)	(1,0)	(1,0)	(1,0)	(1,0)	(1,0)	(1,0)	(1,0)	(1,0)	
L1D 485>	(1,0)	(1,0)	(1,0)	(1,0)	(1,0)	(1,0)	(1,0)	(1,0)	(1,0)	(1,0)	(1,0)	(1,0)	(1,0)	(1,0)	(1,0)	(1,0)	
L1D 486>	(1,0)	(1,0)	(1,0)	(1,0)	(1,0)	(1,0)	(1,0)	(1,0)	(1,0)	(1,0)	(1,0)	(1,0)	(1,0)	(1,0)	(1,0)	(1,0)	
L1D 487>	(1,0)	(1,0)	(1,0)	(1,0)	(1,0)	(1,0)	(1,0)	(1,0)	(1,0)	(1,0)	(1,0)	(1,0)	(1,0)	(1,0)	(1,0)	(1,0)	
L1D 488>	(1,0)	(1,0)	(1,0)	(1,0)	(1,0)	(1,0)	(1,0)	(1,0)	(1,0)	(1,0)	(1,0)	(1,0)	(1,0)	(1,0)	(1,0)	(1,0)	
L1D 489>	(1,0)	(1,0)	(1,0)	(1,0)	(1,0)	(1,0)	(1,0)	(1,0)	(1,0)	(1,0)	(1,0)	(1,0)	(1,0)	(1,0)	(1,0)	(1,0)	
L1D 490>	(1,0)	(1,0)	(1,0)	(1,0)	(1,0)	(1,0)	(1,0)	(1,0)	(1,0)	(1,0)	(1,0)	(1,0)	(1,0)	(1,0)	(1,0)	(1,0)	
L1D 491>	(1,0)	(1,0)	(1,0)	(1,0)	(1,0)	(1,0)	(1,0)	(1,0)	(1,0)	(1,0)	(1,0)	(1,0)	(1,0)	(1,0)	(1,0)	(1,0)	
L1D 492>	(1,0)	(1,0)	(1,0)	(1,0)	(1,0)	(1,0)	(1,0)	(1,0)	(1,0)	(1,0)	(1,0)	(1,0)	(1,0)	(1,0)	(1,0)	(1,0)	
L1D 493>	(1,0)	(1,0)	(1,0)	(1,0)	(1,0)	(1,0)	(1,0)	(1,0)	(1,0)	(1,0)	(1,0)	(1,0)	(1,0)	(1,0)	(1,0)	(1,0)	
L1D 494>	(1,0)	(1,0)	(1,0)	(1,0)	(1,0)	(1,0)	(1,0)	(1,0)	(1,0)	(1,0)	(1,0)	(1,0)	(1,0)	(1,0)	(1,0)	(1,0)	
L1D 495>	(1,0)	(1,0)	(1,0)	(1,0)	(1,0)	(1,0)	(1,0)	(1,0)	(1,0)	(1,0)	(1,0)	(1,0)	(1,0)	(1,0)	(1,0)	(1,0)	
L1D 496>	(1,0)	(1,0)	(1,0)	(1,0)	(1,0)	(1,0)	(1,0)	(1,0)	(1,0)	(1,0)	(1,0)	(1,0)	(1,0)	(1,0)	(1,0)	(1,0)	
L1D 497>	(1,0)	(1,0)	(1,0)	(1,0)	(1,0)	(1,0)	(1,0)	(1,0)	(1,0)	(1,0)	(1,0)	(1,0)	(1,0)	(1,0)	(1,0)	(1,0)	
L1D 498>	(1,0)	(1,0)	(1,0)	(1,0)	(1,0)	(1,0)	(1,0)	(1,0)	(1,0)	(1,0)	(1,0)	(1,0)	(1,0)	(1,0)	(1,0)	(1,0)	
L1D 499>	(1,0)	(1,0)	(1,0)	(1,0)	(1,0)	(1,0)	(1,0)	(1,0)	(1,0)	(1,0)	(1,0)	(1,0)	(1,0)	(1,0)	(1,0)	(1,0)	
L1D 500>	(1,0)	(1,0)	(1,0)	(1,0)	(1,0)	(1,0)	(1,0)	(1,0)	(1,0)	(1,0)	(1,0)	(1,0)	(1,0)	(1,0)	(1,0)	(1,0)	
L1D 501>	(1,0)	(1,0)	(1,0)	(1,0)	(1,0)	(1,0)	(1,0)	(1,0)	(1,0)	(1,0)	(1,0)	(1,0)	(1,0)	(1,0)	(1,0)	(1,0)	
L1D 502>	(1,0)	(1,0)	(1,0)	(1,0)	(1,0)	(1,0)	(1,0)	(1,0)	(1,0)	(1,0)	(1,0)	(1,0)	(1,0)	(1,0)	(1,0)	(1,0)	
L1D 503>	(1,0)	(1,0)	(1,0)	(1,0)	(1,0)	(1,0)	(1,0)	(1,0)	(1,0)	(1,0)	(1,0)	(1,0)	(1,0)	(1,0)	(1,0)	(1,0)	
L1D 504>	(1,0)	(1,0)	(1,0)	(1,0)	(1,0)	(1,0)	(1,0)	(1,0)	(1,0)	(1,0)	(1,0)	(1,0)	(1,0)	(1,0)	(1,0)	(1,0)	
L1D 505>	(1,0)	(1,0)	(1,0)	(1,0)	(1,0)	(1,0)	(1,0)	(1,0)	(1,0)	(1,0)	(1,0)	(1,0)	(1,0)	(1,0)	(1,0)	(1,0)	
L1D 506>	(1,0)	(1,0)	(1,0)	(1,0)	(1,0)	(1,0)	(1,0)	(1,0)	(1,0)	(1,0)	(1,0)	(1,0)	(1,0)	(1,0)	(1,0)	(1,0)	
L1D 507>	(1,0)	(1,0)	(1,0)	(1,0)	(1,0)	(1,0)	(1,0)	(1,0)	(1,0)	(1,0)	(1,0)	(1,0)	(1,0)	(1,0)	(1,0)	(1,0)	
L1D 508>	(1,0)	(1,0)	(1,0)	(1,0)	(1,0)	(1,0)	(1,0)	(1,0)	(1,0)	(1,0)	(1,0)	(1,0)	(1,0)	(1,0)	(1,0)	(1,0)	
L1D 509>	(1,0)	(1,0)	(1,0)	(1,0)	(1,0)	(1,0)	(1,0)	(1,0)	(1,0)	(1,0)	(1,0)	(1,0)	(1,0)	(1,0)	(1,0)	(1,0)	
L1D 510>	(1,0)	(1,0)	(1,0)	(1,0)	(1,0)	(1,0)	(1,0)	(1,0)	(1,0)	(1,0)	(1,0)	(1,0)	(1,0)	(1,0)	(1,0)	(1,0)	
L1D 511>	(1,0)	(1,0)	(1,0)	(1,0)	(1,0)	(1,0)	(1,0)	(1,0)	(1,0)	(1,0)	(1,0)	(1,0)	(1,0)	(1,0)	(1,0)	(1,0)	

L2C -64>	(1,70)	(-1,145)	(-22,28)	(-21,38)	(21,41)	(22,190)	(0,164)	(-46,1)	(43,61)	(-2,92)	(4,10)	(-4,72)	(-8,8)	(44,7)	(-3,90)	(-5,212)	
L2C -63>	(1,5)	(22,2)	(2,1)	(9,1)	(1,0)	(1,0)	(1,0)	(1,0)	(1,0)	(1,0)	(1,0)	(1,0)	(1,0)	(1,0)	(1,0)	(1,0)	
L2C -62>	(40,2)	(39,2)	(22,2)	(2,6)	(1,0)	(1,0)	(1,0)	(1,0)	(1,0)	(1,0)	(1,0)	(1,0)	(1,0)	(1,0)	(1,0)	(1,0)	
L2C -61>	(39,1)	(40,1)	(1,0)	(1,0)	(1,0)	(1,0)	(1,0)	(1,0)	(1,0)	(1,0)	(1,0)	(1,0)	(1,0)	(1,0)	(1,0)	(1,0)	
L2C -60>	(39,2)	(23,1)	(1,0)	(1,0)	(1,0)	(1,0)	(1,0)	(1,0)	(1,0)	(1,0)	(1,0)	(1,0)	(1,0)	(1,0)	(1,0)	(1,0)	
L2C -59>	(14,5)	(15,4)	(16,1)	(1,3)	(22,5)	(54,1)	(28,1)	(3,1)	(23,2)	(2,1)	(24,1)	(1,0)	(1,0)	(1,0)	(1,0)	(1,0)	
L2C -58>	(1,14)	(23,1)	(15,2)	(21,1)	(22,1)	(1,0)	(1,0)	(1,0)	(1,0)	(1,0)	(1,0)	(1,0)	(1,0)	(1,0)	(1,0)	(1,0)	
L2C -57>	(1,132)	(2,0)	(35,0)	(14,0)	(22,0)	(1,0)	(1,0)	(1,0)	(1,0)	(1,0)	(1,0)	(1,0)	(1,0)	(1,0)	(1,0)	(1,0)	
L2C -56>	(-2,2)	(14,2)	(5,1)	(1,4)	(20,1)	(-1,1)	(2,1)	(1,0)	(1,0)	(1,0)	(1,0)	(1,0)	(1,0)	(1,0)	(1,0)	(1,0)	
L2C -55>	(-1,3)	(-3,1)	(6,1)	(56,1)	(21,3)	(20,14)	(-2,5)	(-4,1)	(13,1)	(22,3)	(50,3)	(19,2)	(26,1)	(1,0)	(1,0)	(1,0)	
L2C -54>	(4,2)	(1,2)	(5,1)	(-3,1)	(20,3)	(3,3)	(18,4)	(1,0)	(1,0)	(1,0)	(1,0)	(1,0)	(1,0)	(1,0)	(1,0)	(1,0)	
L2C -53>	(1,13)	(0,59)	(-1,1)	(2,1)	(21,6)	(7,1)	(22,2)	(46,1)	(18,1)	(3,9)	(16,1)	(24,1)	(51,1)	(20,1)	(1,0)	(1,0)	
L2C -52>	(1,34)	(26,43)	(-1,3)	(30,4)	(21,2)	(15,2)	(0,2)	(13,8)	(7,2)	(2,2)	(6,2)	(50,1)	(43,5)	(22,14)	(8,1)	(16,1)	
L2C -51>	(1,9)	(0,2)	(14,1)	(22,2)	(2,2)	(16,1)	(15,2)	(-1,4)	(21,2)	(29,3)	(42,1)	(5,1)	(24,1)	(43,1)	(-4,1)	(51,1)	
L2C -50>	(0,3)	(1,15)	(28,7)	(-1,25)	(49,2)	(22,27)	(-2,2)	(7,6)	(36,3)	(15,16)	(14,8)	(44,11)	(50,6)	(10,11)	(21,21)	(20,16)	
L2C -49>	(-1,3)	(43,10)	(1,9)	(0,2)	(-2,3)	(22,2)	(44,78)	(50,1)	(23,1)	(21,1)	(49,1)	(6,1)	(14,5)	(20,1)	(15,4)	(16,1)	
L2C -48>	(0,8)	(21,27)	(22,174)	(-1,11)	(20,2)	(43,195)	(1,65)	(44,12)	(48,1)	(3,1)	(42,2)	(19,1)	(29,1)	(30,1)	(49,1)	(1,0)	
L2C -47>	(1,84)	(22,63)	(21,29)	(48,12)	(43,129)	(44,23)	(-1,21)	(42,17)	(49,3)	(23,6)	(6,1)	(0,2)	(24,3)	(32,1)	(-2,2)	(2,2)	
L2C -46>	(-1,2)	(43,203)	(42,3)	(22,71)	(0,15)	(1,183)	(44,25)	(21,25)	(48,3)	(25,1)	(47,10)	(2,3)	(3,1)	(9,0)	(23,1)	(4,0)	
L2C -45>	(-1,146)	(22,112)	(43,246)	(21,67)	(1,174)	(0,28)	(19,2)	(24,36)	(44,28)	(42,53)	(25,1)	(46,28)	(20,7)	(4,1)	(2,6)	(47,2)	
L2C -44>	(22,120)	(21,14)	(1,182)	(43,121)	(-1,17)	(19,1)	(44,54)	(2,27)	(23,39)	(3,1)	(46,1)	(0,8)	(20,1)	(-9,0)	(42,9)	(45,25)	
L2C -43>	(25,1)	(21,108)	(44,45)	(22,156)	(43,78)	(-1,8)	(1,46)	(42,41)	(27,0)	(36,0)	(14,0)	(23,1)	(45,1)	(3,0)	(-18,0)	(2,0)	
L2C -42>	(20,11)	(43,40)	(21,159)	(1,116)	(-1,73)	(24,1)	(9,1)	(22,79)	(-2,2)	(44,2)	(23,0)	(0,2)	(-21,0)	(2,1)	(42,1)	(46,0)	
L2C -41>	(1,173)	(19,34)	(24,1)	(42,8)	(-1,4)	(2,4)	(22,51)	(41,1)	(-2,25)	(20,36)	(48,1)	(4,1)	(40,2)	(3,1)	(43,0)	(-3,0)	
L2C -40>	(11,3)	(41,23)	(8,7)	(18,14)	(1,114)	(22,9)	(2,4)	(-3,44)	(3,2)	(21,2)	(40,1)	(56,1)	(20,3)	(19,101)	(12,2)	(-2,11)	
L2C -39>	(27,1)	(1,177)	(22,0)	(-1,1)	(-4,0)	(18,2)	(10,0)	(53,0)	(17,1)	(38,0)	(29,0)	(1,0)	(1,0)	(1,0)	(1,0)	(1,0)	
L2C -38>	(21,2)	(52,2)	(10,1)	(22,2)	(43,4)	(17,26)	(39,6)	(-5,23)	(16,23)	(1,11)	(15,5)	(-7,1)	(8,5)	(40,1)	(-4,1)	(-6,2)	
L2C -37>	(7,101)	(1,47)	(0,5)	(42,1)	(-5,5)	(53,26)	(16,51)	(-1,13)	(8,17)	(51,39)	(-6,15)	(2,13)	(15,2)	(48,5)	(-2,7)	(20,33)	
L2C -36>	(2,14)	(21,6)	(22,16)	(0,7)	(1,45)	(3,8)	(-19,30)	(-15,5)	(-8,7)	(-23,5)	(50,5)	(-21,23)	(23,4)	(-1,1)	(31,9)	(30,4)	
L2C -35>	(-1,59)	(21,11)	(0,20)	(22,10)	(1,31)	(2,10)	(30,5)	(43,4)	(-24,3)	(-22,16)	(20,1)	(7,16)	(-20,7)	(29,20)	(-2,6)	(-7,6)	
L2C -34>	(41,3)	(21,4)	(-1,17)	(-3,6)	(19,14)	(20,18)	(-24,2)	(-15,2)	(-21,7)	(48,12)	(-2,28)	(7,5)	(1,12)	(29,1)	(13,4)	(-23,2)	
L2C -33>	(-22,4)	(-3,3)	(28,2)	(-16,1)	(19,8)	(-24,4)	(1,1)	(26,17)	(-1,4)	(13,3)	(22,5)	(-2,7)	(18,2)	(48,3)	(21,1)	(25,2)	
L2C -32>	(-7,1)	(2,4)	(1,10)	(-21,5)	(-20,2)	(-2,2)	(7,1)	(-1,2)	(32,1)	(1,0)	(1,0)	(1,0)	(1,0)	(1,0)	(1,0)	(1,0)	
L2C -31>	(10,1)	(26,7)	(30,1)	(-13,3)	(22,5)	(-4,2)	(-20,1)	(-21,7)	(-7,1)	(13,1)	(14,3)	(28,2)	(27,1)	(-2,1)	(0,2)	(-6,1)	
L2C -30>	(14,6)	(-1,8)	(22,3)	(-20,9)	(-6,7)	(1,71)	(-13,6)	(20,4)	(16,9)	(-7,2)	(43,5)	(8,5)	(-14,2)	(-22,1)	(15,6)	(-21,5)	
L2C -29>	(-1,36)	(3,16)	(1,95)	(-15,6)	(-12,13)	(15,8)	(-14,6)	(-2,19)	(-22,1)	(7,14)	(-21,16)	(44,3)	(2,33)	(-7,17)	(23,8)	(14,7)	
L2C -28>	(-1,47)	(44,14)	(14,50)	(21,223)	(20,39)	(1,45)	(49,9)	(16,23)	(10,36)	(-22,33)	(50,19)	(15,48)	(22,20)	(-23,7)	(-2,15)	(7,24)	
L2C -27>	(22,199)	(-15,41)	(21,103)	(-1,15)	(7,3)	(1,158)	(43,161)	(-16,7)	(-14,3)	(0,38)	(-20,4)	(13,1)	(2,5)	(44,11)	(-21,172)	(-22,86)	
L2C -26>	(44,6)	(50,1)	(42,29)	(21,128)	(-1,51)	(43,72)	(22,26)	(1,225)	(25,1)	(27,13)	(0,37)	(-22,99)	(2,3)	(20,12)	(-21,53)	(-2,1)	
L2C -25>	(22,67)	(-21,72)	(21,27)	(1,139)	(-2,1)	(-1,16)	(44,45)	(25,22)	(42,8)	(20,13)	(43,63)	(3,4)	(26,17)	(2,9)	(-22,114)	(0,26)	
L2C -24>	(21,98)	(-1,12)	(19,1)	(25,12)	(44,9)	(1,173)	(22,100)	(2,2)	(43,132)	(3,1)	(46,10)	(42,14)	(-21,69)	(0,32)	(-22,80)	(-20,1)	
L2C -23>	(20,5)	(-1,76)	(45,19)	(1,254)	(24,40)	(43,89)	(-21,57)	(2,15)	(-22,124)	(22,96)	(0,22)	(42,58)	(21,135)	(15,6)	(44,21)	(25,1)	
L2C -22>	(-21,146)	(21,48)	(-22,20)	(22,149)	(43,135)	(0,9)	(1,87)	(27,1)	(4,1)	(2,2)	(44,20)	(23,7)	(24,0)	(-1,1)	(-28,16)	(-20,3)	
L2C -21>	(-21,32)	(43,140)	(42,2)	(-22,92)	(22,103)	(21,105)	(20,5)	(-1,41)	(0,34)	(19,5)	(44,0)	(5,0)	(1,24)	(-28,7)	(-3,0)	(-24,0)	
L2C -20>	(42,14)	(21,15)	(-22,3)	(1,130)	(-1,22)	(43,2)	(-2,10)	(4,0)	(19,11)	(20,2)	(22,46)	(-23,11)	(-21,27)	(2,6)	(40,2)	(-24,1)	
L2C -19>	(18,12)	(21,6)	(1,132)	(-21,22)	(41,10)	(22,30)	(19,3)	(-3,36)	(-24,20)	(-25,4)	(3,6)	(20,30)	(17,2)	(-9,1)	(2,6)	(-2,36)	
L2C -18>	(1,242)	(-2,0)	(61,0)	(39,0)	(22,0)	(-25,1)	(0,0)	(-4,1)	(18,0)	(-3,5)	(29,0)	(40,4)	(19,2)	(16,0)	(2,5)	(10,0)	
L2C -17>	(39,5)	(22,3)	(38,11)	(-12,25)	(-13,7)	(1,116)	(-4,25)	(7,10)	(17,8)	(-27,6)	(2,3)	(18,6)	(6,1)	(-6,8)	(-5,47)	(-1,2)	
L2C -16>	(31,41)	(38,24)	(15,12)	(2,33)	(1,36)	(14,47)	(17,27)	(16,174)	(44,12)	(18,13)	(-1,66)	(30,24)	(-5,110)	(42,1)	(0,79)	(20,5)	
L2C -15>	(22,10)	(-1,51)	(14,13)	(2,77)	(9,8)	(3,18)	(21,7)	(1,139)	(7,14)	(-21,4)	(43,4)	(0,14)	(-20,4)	(29,36)	(15,9)	(-6,1)	
L2C -14>	(22,125)	(50,1)	(-1,21)	(21,22)	(8,61)	(1,145)	(13,8)	(43,11)	(15,11)	(2,9)	(-21,10)	(-15,35)	(6,27)	(-2,71)	(-22,12)	(29,11)	
L2C -13>	(28,16)	(-1,105)	(0,18)	(21,25)	(22,13)	(15,19)	(13,31)	(-22,3)	(-15,13)	(1,26)	(5,4)	(9,27)	(12,28)	(35,1)	(7,19)	(-3,6)	
L2C -12>	(-1,46)	(6,36)	(9,6)	(20,24)	(11,60)	(8,10)	(22,6)	(12,130)	(1,33)	(7,65)	(-16,11)	(2,13)	(19,11)	(-2,29)	(34,1)	(10,11)	
L2C -11>	(-5,7)	(-2,34)	(-1,6)	(22,8)	(8,13)	(11,11)	(10,13)	(-15,2)	(-6,8)	(16,4)	(12,9)	(1,9)	(-4,11)	(9,2)	(13,5)	(-9,1)	
L2C -10>	(-4,5)	(31,31)	(7,22)	(-14,8)	(8,47)	(1,26)	(18,6)	(-1,13)	(14,5)	(30,18)	(-2,14)	(22,1)	(-5,2)	(44,4)	(2,8)	(10,2)	
L2C -9>	(-4,8)	(-1,41)	(12,1)	(-8,7)	(16,6)	(-22,3)	(8,68)	(1,54)	(10,15)	(7,93)	(26,14)	(-6,10)	(14,16)	(29,6)	(43,5)	(18,3)	
L2C -8>	(2,13)	(-14,23)	(1,147)	(14,36)	(15,10)	(-1,43)	(-7,7)	(7,179)	(-6,14)	(-15,42)	(29,17)	(-2,1)	(43,110)	(8,55)	(21,27)	(9,29)	
L2C -7>	(1,220)	(-1,173)	(8,48)	(2,6)	(9,35)	(-28,1)	(-8,15)	(12,8)	(-7,29)	(-21,28)	(6,49)	(-6,23)	(0,43)	(7,140)	(14,55)	(21,91)	
L2C -6>	(2,16)	(22,11)	(1,215)	(-1,10)	(7,12)	(21,11)	(-10,3)	(13,11)	(-8,12)	(19,12)	(8,11)	(-21,23)	(5,2)	(20,1)	(-2,3)	(-7,13)	
L2C -5>	(-21,18)	(2,4)	(1,138)	(43,11)	(-22,16)	(0,122)	(-1,16)	(21,19)	(4,3)	(5,2)	(-8,1)	(-23,2)	(-43,3)	(-9,0)	(22,9)	(12,0)	
L2C -4>	(-22,15)	(-20,1)	(1,152)	(-21,22)	(0,114)	(-1,5)	(2,10)	(5,5)	(-37,1)	(7,2)	(-2,6)	(-7,2)	(22,15)	(43,6)	(-43,1)	(21,12)	
L2C -3>	(4,2)	(-43,4)	(43,11)	(1,148)	(-21,94)	(0,99)	(-1,4)	(44,12)	(8,6)	(21,5)	(3,0)	(-22,6)	(22,24)	(25,0)	(2,6)	(23,2)	
L2C -2>	(1,203)	(-22,39)	(0,126)	(-4,2)	(21,12)	(22,16)	(-1,12)	(-21,31)	(-2,8)	(-26,1)	(-43,3)	(44,2)	(43,6)	(35,1)	(2,4)	(3,13)	
L2C -1>	(-1,2)	(2,7)	(-28,2)	(43,3)	(11,1)	(-21,152)	(22,86)	(-42,9)	(-8,1)	(-43,10)	(-22,9)	(44,27)	(1,162)	(21,5)	(0,90)	(-20,5)	
L2C 0>	(-22,22)	(-5,1)	(22,8)	(-1,14)	(2,2)	(0,247)	(1,135)	(-21,25)	(-16,0)	(25,0)	(21,12)	(-43,11)	(16,0)	(-13,0)	(5,3)	(-50,0)	
L2C 1>	(1,237)	(17,5)	(-1,29)	(-3,5)	(-22,4)	(12,16)	(11,18)	(5,16)	(21,3)	(-57,13)	(-2,11)	(-4,3)	(2,3)	(0,4)	(-5,13)	(42,3)	
L2C 2>	(12,1)	(1,223)	(-6,3)	(38,1)	(-2,11)	(3,3)	(5,3)	(0,1)	(2,4)	(-9,1)	(-3,8)	(-1,2)	(19,2)	(-23,1)	(-4,4)	(-5,11)	
L2C 3>	(-2,6)	(-6,11)	(-26,17)	(1,88)	(2,1)	(-27,17)	(16,23)	(-5,168)	(-3,13)	(-4,26)	(19,14)	(-16,5)	(-1,7)	(-25,5)	(18,4)	(17,15)	
L2C 4>	(1,111)	(-27,23)	(3,2)	(17,6)	(-6,10)	(16,9)	(-3,3)	(-5,235)	(-41,2)	(-26,15)	(-12,8)	(38,4)	(-28,2)	(-8,31)	(-4,14)	(2,17)	
L2C 5>	(-7,0)	(17,145)	(-26,1)	(-18,24)	(-39,24)	(-27,0)	(16,1)	(-6,5)	(-12,1)	(12,0)	(1,0)	(-5,13)	(37,0)	(-8,0)	(-2,0)	(-13,0)	
L2C 6>	(7,66)	(21,12)	(-8,9)	(-21,7)	(-7,47)	(-14,31)	(1,44)	(16,14)	(-26,8)	(-22,7)	(2,29)	(15,1)	(-6,20)	(-5,43)	(-1,5)	(-34,16)	
L2C 7>	(13,1)	(-6,179)	(-22,6)	(7,28)	(1,136)	(15,30)	(2,52)	(-14,33)	(-1,7)	(-13,6)	(-15,7)	(21,8)	(-7,52)	(0,37)	(8,23)	(-8,19)	
L2C 8>	(0,33)	(-1,179)	(14,23)	(-16,24)	(13,201)	(-21,25)	(-6,235)	(-22,23)	(1,114)	(-13,17)	(7,60)	(-37,48)	(-9,1)	(-8,37)	(21,42)	(-15,17)	
L2C 9>	(1,26)	(-23,4)	(-1,51)	(19,17)	(-37,101)	(-22,46)	(-10,1)	(-16,11)	(40,3)	(-15,13)	(-2,38)	(-21,19)	(-20,5)	(-43,12)	(4,9)	(5,12)	
L2C 10>	(1,25)	(-9,4)	(4,2)	(-2,89)	(-1,8)	(-16,7)	(-24,4)	(40,48)	(-12,5)	(0,4)	(-3,6)	(-21,2)	(5,3)	(18,9)	(-38,4)	(-4,1)	
L2C 11>	(1,209)	(-4,1)	(-28,1)	(-50,0)	(-2,0)	(-18,0)	(1,0)	(1,0)	(1,0)	(1,0)	(1,0)	(1,0)	(1,0)	(1,0)	(1,0)	(1,0)	
L2C 12>	(2,220)	(-4,1)	(-2,5)	(-12,0)	(28,0)	(-13,0)	(-22,0)	(-14,1)	(14,0)	(-5,1)	(1,0)	(1,0)	(1,0)	(1,0)	(1,0)	(1,0)	
L2C 13>	(-22,28)	(-13,25)	(-2,2)	(15,19)	(-12,14)	(-6,62)	(-7,16)	(-15,4)	(7,9)	(0,12)	(-14,71)	(1,23)	(-29,50)	(-4,28)	(-20,64)	(4,9)	
L2C 14>	(-13,17)	(-28,19)	(7,65)	(-1,25)	(-6,220)	(-14,32)	(-21,59)	(-2,35)	(0,13)	(-15,19)	(-12,39)	(15,29)	(-19,1)	(30,4)	(1,67)	(8,22)	
L2C 15>	(-6,9)	(-21,43)	(-1,140)	(-2,9)	(-14,65)	(1,27)	(-8,19)	(13,14)	(-22,20)	(8,22)	(-13,22)	(20,7)	(-34,1)	(-15,18)	(-16,25)	(14,14)	
L2C 16>	(1,44)	(22,46)	(-22,22)	(0,42)	(-1,2)	(-21,181)	(21,11)	(12,4)	(-6,1)	(-43,11)	(-16,31)	(-10,1)	(-8,1)	(-37,6)	(-42,7)	(-2,6)	
L2C 17>	(4,0)	(1,129)	(-21,6)	(21,7)	(0,3)	(-2,0)	(-23,0)	(-22,20)	(-16,3)	(-1,2)	(-15,0)	(-10,0)	(-3,0)	(2,0)	(22,1)	(1,0)	
L2C 18>	(23,8)	(-21,220)	(0,23)	(-1,16)	(-16,5)	(-43,56)	(1,90)	(-17,36)	(-28,10)	(-8,1)	(22,77)	(-22,119)	(-5,1)	(2,2)	(-42,41)	(21,9)	
L2C 19>	(-28,19)	(1,24)	(-21,168)	(-29,2)	(-27,1)	(-22,164)	(0,44)	(-18,21)	(-43,25)	(21,4)	(-16,1)	(22,10)	(3,2)	(-1,17)	(-42,6)	(-6,2)	
L2C 20>	(1,53)	(2,6)	(22,7)	(21,6)	(-28,1)	(-42,5)	(-21,158)	(-22,117)	(-1,15)	(-43,23)	(-13,1)	(-19,19)	(-41,10)	(-7,5)	(0,22)	(-18,2)	
L2C 21>	(1,104)	(-42,13)	(-22,86)	(22,58)	(-43,86)	(-21,157)	(0,19)	(-20,22)	(23,1)	(2,1)	(-6,1)	(-1,1)	(21,11)	(-19,1)	(-37,0)	(-7,1)	
L2C 22>	(-43,69)	(-1,29)	(-44,13)	(1,27)	(-21,213)	(21,62)	(0,17)	(-22,111)	(-14,1)	(-2,7)	(-3,5)	(-25,2)	(22,13)	(-24,3)	(19,2)	(-46,2)	
L2C 23>	(-24,4)	(-22,23)	(1,140)	(-23,3)	(20,19)	(-21,69)	(-1,24)	(-46,4)	(18,1)	(-45,6)	(-3,9)	(21,8)	(22,23)	(19,10)	(-44,6)	(-2,8)	
L2C 24>	(1,227)	(-24,19)	(3,11)	(-3,72)	(-22,7)	(-16,23)	(-23,91)	(-45,30)	(-21,106)	(19,130)	(-5,1)	(-9,6)	(22,58)	(-14,12)	(-2,56)	(-46,59)	
L2C 25>	(16,9)	(0,63)	(22,1)	(18,23)	(-11,13)	(-21,5)	(2,14)	(-10,4)	(-47,11)	(19,8)	(-5,5)	(-46,23)	(1,93)	(-24,31)	(-25,52)	(-3,18)	
L2C 26>	(17,11)	(0,29)	(1,44)	(-4,29)	(22,4)	(-28,17)	(16,6)	(-48,6)	(-47,3)	(-25,2)	(4,4)	(-27,6)	(18,3)	(15,8)	(-13,37)	(-5,4)	
L2C 27>	(-49,14)	(11,1)	(-14,10)	(-21,7)	(-25,3)	(16,16)	(-5,25)	(9,2)	(-7,5)	(-1,4)	(-22,4)	(-27,4)	(-28,23)	(-26,32)	(-13,13)	(15,6)	
L2C 28>	(8,6)	(7,12)	(-29,37)	(-26,7)	(-35,5)	(-22,5)	(-14,41)	(-27,7)	(15,3)	(1,7)	(-7,11)	(-36,1)	(-6,8)	(-49,10)	(-50,48)	(-28,10)	
L2C 29>	(-8,14)	(-50,29)	(22,9)	(7,17)	(-21,4)	(14,1)	(-26,4)	(-7,17)	(-22,25)	(-1,42)	(-37,3)	(-14,27)	(-28,65)	(13,18)	(-12,10)	(8,9)	
L2C 30>	(-21,3)	(-29,21)	(0,3)	(14,2)	(-25,2)	(21,5)	(-9,7)	(-1,19)	(-5,6)	(-50,14)	(-28,26)	(5,4)	(-8,11)	(13,9)	(-7,2)	(-52,8)	
L2C 31>	(-24,2)	(-14,4)	(-52,7)	(-31,1)	(-16,2)	(-1,29)	(-30,32)	(-29,14)	(-53,2)	(-33,1)	(13,18)	(-17,4)	(-39,3)	(-10,2)	(-44,1)	(-50,2)	
L2C 32>	(8,2)	(-4,1)	(-52,8)	(-39,35)	(-16,1)	(-1,1)	(-38,2)	(-28,1)	(-54,1)	(-25,1)	(-14,4)	(-13,1)	(-41,1)	(-53,4)	(-50,1)	(-29,4)	
L2C 33>	(-29,1)	(-34,2)	(-42,1)	(-5,1)	(-55,2)	(-7,1)	(-35,4)	(-36,2)	(8,2)	(-14,4)	(-28,3)	(-22,1)	(-49,1)	(-46,1)	(1,0)	(1,0)	
L2C 34>	(-57,8)	(-56,3)	(-33,8)	(-28,8)	(-8,1)	(1,1)	(-42,1)	(-27,1)	(-35,10)	(-3,1)	(-21,2)	(-30,1)	(0,1)	(-36,14)	(-55,7)	(-37,1)	
L2C 35>	(-14,7)	(-56,3)	(-57,9)	(-37,5)	(-55,4)	(-5,3)	(-52,4)	(-51,1)	(-30,1)	(-42,3)	(-34,6)	(-13,1)	(-12,1)	(-50,3)	(-36,8)	(-28,27)	
L2C 36>	(-29,4)	(14,3)	(-57,13)	(-50,5)	(-1,13)	(-34,13)	(-43,4)	(-35,38)	(-8,4)	(-55,6)	(-44,4)	(-22,5)	(-59,3)	(7,1)	(-37,4)	(-33,10)	
L2C 37>	(0,5)	(6,1)	(-21,113)	(-1,21)	(-35,13)	(1,42)	(-58,1)	(-42,34)	(-8,4)	(-20,6)	(-45,1)	(-36,20)	(-43,29)	(-46,1)	(-59,2)	(-57,3)	
L2C 38>	(-21,206)	(0,44)	(-44,21)	(-22,214)	(-1,22)	(-43,238)	(-52,3)	(1,25)	(-9,2)	(3,1)	(-42,10)	(-37,12)	(-28,1)	(-16,1)	(-24,1)	(-30,2)	
L2C 39>	(-22,64)	(-21,103)	(-43,37)	(-40,8)	(-1,8)	(-2,1)	(-42,9)	(-31,2)	(-38,59)	(1,31)	(-23,7)	(-60,2)	(-20,3)	(0,7)	(-44,12)	(-37,3)	
L2C 40>	(-21,231)	(-39,23)	(-43,56)	(-37,1)	(0,19)	(1,58)	(-22,60)	(-42,9)	(-16,1)	(-2,1)	(6,1)	(-23,1)	(-50,12)	(2,3)	(-20,1)	(-18,1)	
L2C 41>	(-43,70)	(-21,181)	(-22,191)	(0,34)	(-19,15)	(-40,36)	(-20,1)	(14,2)	(-17,1)	(-23,1)	(-1,33)	(-44,7)	(-18,2)	(1,68)	(2,2)	(-42,4)	
L2C 42>	(1,54)	(-43,51)	(-21,139)	(-22,27)	(0,13)	(-41,43)	(-28,2)	(-20,23)	(-1,5)	(-19,1)	(-7,1)	(-6,1)	(-40,1)	(-42,25)	(-2,1)	(2,1)	
L2C 43>	(-22,155)	(-28,1)	(-1,30)	(-21,205)	(-20,8)	(-42,62)	(-44,21)	(0,30)	(1,27)	(-43,5)	(-17,0)	(-40,0)	(-52,1)	(-24,0)	(-19,0)	(-2,0)	
L2C 44>	(0,18)	(-22,144)	(-43,62)	(1,41)	(-42,2)	(-1,53)	(-21,42)	(-5,0)	(-2,0)	(-7,0)	(-28,1)	(-23,0)	(-20,0)	(-12,0)	(-45,0)	(2,0)	
L2C 45>	(-22,3)	(-9,0)	(-21,56)	(-1,23)	(-4,0)	(1,166)	(-2,55)	(-5,1)	(3,6)	(2,5)	(4,1)	(-45,1)	(-24,4)	(-3,6)	(-44,21)	(-23,11)	
L2C 46>	(-4,3)	(-3,113)	(-1,2)	(-5,8)	(-21,3)	(3,7)	(-46,2)	(-23,2)	(-2,31)	(1,126)	(-24,18)	(-44,2)	(-45,37)	(-25,1)	(2,17)	(-36,1)	
L2C 47>	(-22,2)	(-42,2)	(-47,1)	(-21,2)	(1,40)	(-4,33)	(2,8)	(-25,4)	(-3,11)	(-46,6)	(-23,1)	(-48,2)	(-6,1)	(-35,1)	(-5,6)	(-27,1)	
L2C 48>	(-50,28)	(-32,3)	(-49,4)	(-22,4)	(0,1)	(-52,5)	(-53,7)	(-5,38)	(-28,18)	(1,2)	(-26,3)	(-29,3)	(-4,2)	(-27,11)	(-47,20)	(-25,3)	
L2C 49>	(-43,5)	(-50,17)	(-7,3)	(-5,29)	(-28,9)	(0,2)	(-51,4)	(-22,4)	(-52,2)	(-29,2)	(-21,8)	(-30,5)	(-6,9)	(-48,4)	(-35,3)	(-44,2)	
L2C 50>	(0,4)	(-43,7)	(-22,29)	(-51,12)	(-35,19)	(-52,5)	(-7,3)	(-28,27)	(-49,9)	(-29,23)	(-30,18)	(-8,10)	(-21,5)	(-50,3)	(-36,10)	(-6,15)	
L2C 51>	(-43,10)	(-22,7)	(-9,1)	(0,2)	(-42,2)	(-14,1)	(-50,2)	(-8,4)	(-44,20)	(-57,4)	(-56,1)	(2,3)	(-35,11)	(-29,2)	(-31,1)	(-34,1)	
L2C 52>	(-53,2)	(-52,2)	(-59,1)	(-39,1)	(-30,4)	(-31,1)	(-38,1)	(-9,1)	(-29,2)	(-44,1)	(-42,1)	(1,0)	(1,0)	(1,0)	(1,0)	(1,0)	
L2C 53>	(-52,11)	(-53,53)	(-59,4)	(-46,8)	(-45,8)	(-37,5)	(-55,2)	(-34,1)	(-36,5)	(-35,4)	(-32,3)	(-31,3)	(-44,3)	(0,2)	(-33,1)	(-50,1)	
L2C 54>	(-39,1)	(-51,1)	(-5,1)	(-36,2)	(-35,7)	(-21,2)	(-37,3)	(-52,1)	(-46,1)	(-34,1)	(1,0)	(1,0)	(1,0)	(1,0)	(1,0)	(1,0)	
L2C 55>	(-35,2)	(1,0)	(1,0)	(1,0)	(1,0)	(1,0)	(1,0)	(1,0)	(1,0)	(1,0)	(1,0)	(1,0)	(1,0)	(1,0)	(1,0)	(1,0)	
L2C 56>	(-22,1)	(-37,3)	(-57,1)	(-35,3)	(-53,1)	(-36,3)	(-33,1)	(-52,1)	(1,0)	(1,0)	(1,0)	(1,0)	(1,0)	(1,0)	(1,0)	(1,0)	
L2C 57>	(-36,2)	(-35,2)	(-49,1)	(-57,1)	(1,0)	(1,0)	(1,0)	(1,0)	(1,0)	(1,0)	(1,0)	(1,0)	(1,0)	(1,0)	(1,0)	(1,0)	
L2C 58>	(-36,1)	(-35,2)	(-55,1)	(-34,1)	(1,0)	(1,0)	(1,0)	(1,0)	(1,0)	(1,0)	(1,0)	(1,0)	(1,0)	(1,0)	(1,0)	(1,0)	
L2C 59>	(-43,1)	(-21,1)	(-34,1)	(1,0)	(1,0)	(1,0)	(1,0)	(1,0)	(1,0)	(1,0)	(1,0)	(1,0)	(1,0)	(1,0)	(1,0)	(1,0)	
L2C 60>	(-22,10)	(-21,4)	(-43,2)	(1,0)	(1,0)	(1,0)	(1,0)	(1,0)	(1,0)	(1,0)	(1,0)	(1,0)	(1,0)	(1,0)	(1,0)	(1,0)	
L2C 61>	(-21,9)	(-22,10)	(-43,1)	(-40,1)	(1,0)	(1,0)	(1,0)	(1,0)	(1,0)	(1,0)	(1,0)	(1,0)	(1,0)	(1,0)	(1,0)	(1,0)	
L2C 62>	(-22,16)	(1,1)	(-40,1)	(1,0)	(1,0)	(1,0)	(1,0)	(1,0)	(1,0)	(1,0)	(1,0)	(1,0)	(1,0)	(1,0)	(1,0)	(1,0)	
L2C 63>	(-41,2)	(-21,5)	(-22,1)	(1,0)	(1,0)	(1,0)	(1,0)	(1,0)	(1,0)	(1,0)	(1,0)	(1,0)	(1,0)	(1,0)	(1,0)	(1,0)	

DRAM Statistics
 CHANNEL 0
 RQ ROW_BUFFER_HIT:      11414  ROW_BUFFER_MISS:      15470
 DBUS_CONGESTED:      11836
 WQ ROW_BUFFER_HIT:         84  ROW_BUFFER_MISS:        378  FULL:          0

 AVG_CONGESTED_CYCLE: 6
