
*** ChampSim Multicore Out-of-Order Simulator ***

Warmup Instructions: 1000000
Simulation Instructions: 10000000
Number of CPUs: 1
LLC sets: 2048
LLC ways: 16
Off-chip DRAM Size: 4096 MB Channels: 1 Width: 64-bit Data Rate: 3200 MT/s

CPU 0 runs /home/aniket/Desktop/sem/cs622/cs622-project/champsim/dpc3_traces/620.omnetpp_s-874B.champsimtrace.xz
Ultra pref. initializing...
Ultra pref. initialized
Ultra pref. initializing...
Ultra pref. initialized

Warmup complete CPU 0 instructions: 1000001 cycles: 818791 (Simulation time: 0 hr 0 min 3 sec) 

Heartbeat CPU 0 instructions: 10000000 cycles: 37724159 heartbeat IPC: 0.265082 cumulative IPC: 0.243867 (Simulation time: 0 hr 0 min 44 sec) 
Finished CPU 0 instructions: 10000000 cycles: 41029277 cumulative IPC: 0.243728 (Simulation time: 0 hr 0 min 49 sec) 

CPU 0 Branch Prediction Accuracy: 96.7095% MPKI: 4.878 Average ROB Occupancy at Mispredict: 111.822

ChampSim completed all CPUs

Region of Interest Statistics

CPU 0 cumulative IPC: 0.243728 instructions: 10000000 cycles: 41029277
L1D TOTAL     ACCESS:    9900328  HIT:    9451386  MISS:     448942
L1D LOAD      ACCESS:    2549866  HIT:    2406811  MISS:     143055
L1D RFO       ACCESS:    1848130  HIT:    1831016  MISS:      17114
L1D PREFETCH  ACCESS:    5502332  HIT:    5213559  MISS:     288773
L1D WRITEBACK ACCESS:          0  HIT:          0  MISS:          0
L1D PREFETCH  REQUESTED:   47971252  ISSUED:   45078923  USEFUL:      48925  USELESS:     275784
L1D AVERAGE MISS LATENCY: 185127 cycles
L1I TOTAL     ACCESS:    3091425  HIT:    3087716  MISS:       3709
L1I LOAD      ACCESS:    3091425  HIT:    3087716  MISS:       3709
L1I RFO       ACCESS:          0  HIT:          0  MISS:          0
L1I PREFETCH  ACCESS:          0  HIT:          0  MISS:          0
L1I WRITEBACK ACCESS:          0  HIT:          0  MISS:          0
L1I PREFETCH  REQUESTED:          0  ISSUED:          0  USEFUL:          0  USELESS:          0
L1I AVERAGE MISS LATENCY: 51.897 cycles
L2C TOTAL     ACCESS:    1890602  HIT:    1007370  MISS:     883232
L2C LOAD      ACCESS:     143085  HIT:      59922  MISS:      83163
L2C RFO       ACCESS:      16887  HIT:       6068  MISS:      10819
L2C PREFETCH  ACCESS:    1631529  HIT:     843256  MISS:     788273
L2C WRITEBACK ACCESS:      99101  HIT:      98124  MISS:        977
L2C PREFETCH  REQUESTED:    5785002  ISSUED:    4057772  USEFUL:      32556  USELESS:     831292
L2C AVERAGE MISS LATENCY: 194.5 cycles
LLC TOTAL     ACCESS:     962861  HIT:     271503  MISS:     691358
LLC LOAD      ACCESS:      82426  HIT:      26707  MISS:      55719
LLC RFO       ACCESS:      10450  HIT:       3996  MISS:       6454
LLC PREFETCH  ACCESS:     789375  HIT:     161453  MISS:     627922
LLC WRITEBACK ACCESS:      80610  HIT:      79347  MISS:       1263
LLC PREFETCH  REQUESTED:          0  ISSUED:          0  USEFUL:       8283  USELESS:     660147
LLC AVERAGE MISS LATENCY: 196.626 cycles
Major fault: 0 Minor fault: 20675

L1D -512>	(0,117)	(1,23)	(292,4)	(2,13)	(68,8)	(5,3)	(4,27)	(3,10)	(-255,2)	(28,10)	(-2,2)	(-1,13)	(146,1)	(60,2)	(-9,9)	(10,4)	
L1D -511>	(1,0)	(1,0)	(1,0)	(1,0)	(1,0)	(1,0)	(1,0)	(1,0)	(1,0)	(1,0)	(1,0)	(1,0)	(1,0)	(1,0)	(1,0)	(1,0)	
L1D -510>	(146,1)	(1,1)	(18,2)	(1,0)	(1,0)	(1,0)	(1,0)	(1,0)	(1,0)	(1,0)	(1,0)	(1,0)	(1,0)	(1,0)	(1,0)	(1,0)	
L1D -509>	(1,0)	(1,0)	(1,0)	(1,0)	(1,0)	(1,0)	(1,0)	(1,0)	(1,0)	(1,0)	(1,0)	(1,0)	(1,0)	(1,0)	(1,0)	(1,0)	
L1D -508>	(98,1)	(1,0)	(1,0)	(1,0)	(1,0)	(1,0)	(1,0)	(1,0)	(1,0)	(1,0)	(1,0)	(1,0)	(1,0)	(1,0)	(1,0)	(1,0)	
L1D -507>	(1,0)	(1,0)	(1,0)	(1,0)	(1,0)	(1,0)	(1,0)	(1,0)	(1,0)	(1,0)	(1,0)	(1,0)	(1,0)	(1,0)	(1,0)	(1,0)	
L1D -506>	(1,0)	(1,0)	(1,0)	(1,0)	(1,0)	(1,0)	(1,0)	(1,0)	(1,0)	(1,0)	(1,0)	(1,0)	(1,0)	(1,0)	(1,0)	(1,0)	
L1D -505>	(5,1)	(1,0)	(1,0)	(1,0)	(1,0)	(1,0)	(1,0)	(1,0)	(1,0)	(1,0)	(1,0)	(1,0)	(1,0)	(1,0)	(1,0)	(1,0)	
L1D -504>	(98,2)	(47,1)	(0,1)	(1,0)	(1,0)	(1,0)	(1,0)	(1,0)	(1,0)	(1,0)	(1,0)	(1,0)	(1,0)	(1,0)	(1,0)	(1,0)	
L1D -503>	(1,0)	(1,0)	(1,0)	(1,0)	(1,0)	(1,0)	(1,0)	(1,0)	(1,0)	(1,0)	(1,0)	(1,0)	(1,0)	(1,0)	(1,0)	(1,0)	
L1D -502>	(98,1)	(112,1)	(47,1)	(79,1)	(1,0)	(1,0)	(1,0)	(1,0)	(1,0)	(1,0)	(1,0)	(1,0)	(1,0)	(1,0)	(1,0)	(1,0)	
L1D -501>	(5,1)	(0,1)	(1,0)	(1,0)	(1,0)	(1,0)	(1,0)	(1,0)	(1,0)	(1,0)	(1,0)	(1,0)	(1,0)	(1,0)	(1,0)	(1,0)	
L1D -500>	(112,1)	(5,1)	(18,1)	(99,1)	(98,1)	(1,0)	(1,0)	(1,0)	(1,0)	(1,0)	(1,0)	(1,0)	(1,0)	(1,0)	(1,0)	(1,0)	
L1D -499>	(1,0)	(1,0)	(1,0)	(1,0)	(1,0)	(1,0)	(1,0)	(1,0)	(1,0)	(1,0)	(1,0)	(1,0)	(1,0)	(1,0)	(1,0)	(1,0)	
L1D -498>	(0,1)	(106,1)	(93,1)	(18,1)	(79,1)	(47,1)	(1,0)	(1,0)	(1,0)	(1,0)	(1,0)	(1,0)	(1,0)	(1,0)	(1,0)	(1,0)	
L1D -497>	(1,0)	(1,0)	(1,0)	(1,0)	(1,0)	(1,0)	(1,0)	(1,0)	(1,0)	(1,0)	(1,0)	(1,0)	(1,0)	(1,0)	(1,0)	(1,0)	
L1D -496>	(82,1)	(69,1)	(135,1)	(332,1)	(1,0)	(1,0)	(1,0)	(1,0)	(1,0)	(1,0)	(1,0)	(1,0)	(1,0)	(1,0)	(1,0)	(1,0)	
L1D -495>	(0,2)	(28,1)	(4,1)	(1,0)	(1,0)	(1,0)	(1,0)	(1,0)	(1,0)	(1,0)	(1,0)	(1,0)	(1,0)	(1,0)	(1,0)	(1,0)	
L1D -494>	(102,1)	(0,1)	(334,1)	(344,1)	(99,1)	(1,0)	(1,0)	(1,0)	(1,0)	(1,0)	(1,0)	(1,0)	(1,0)	(1,0)	(1,0)	(1,0)	
L1D -493>	(1,2)	(5,1)	(1,0)	(1,0)	(1,0)	(1,0)	(1,0)	(1,0)	(1,0)	(1,0)	(1,0)	(1,0)	(1,0)	(1,0)	(1,0)	(1,0)	
L1D -492>	(5,1)	(492,1)	(0,1)	(1,2)	(1,0)	(1,0)	(1,0)	(1,0)	(1,0)	(1,0)	(1,0)	(1,0)	(1,0)	(1,0)	(1,0)	(1,0)	
L1D -491>	(0,1)	(1,1)	(1,0)	(1,0)	(1,0)	(1,0)	(1,0)	(1,0)	(1,0)	(1,0)	(1,0)	(1,0)	(1,0)	(1,0)	(1,0)	(1,0)	
L1D -490>	(2,1)	(47,2)	(-2,1)	(1,0)	(1,0)	(1,0)	(1,0)	(1,0)	(1,0)	(1,0)	(1,0)	(1,0)	(1,0)	(1,0)	(1,0)	(1,0)	
L1D -489>	(0,1)	(208,1)	(1,0)	(1,0)	(1,0)	(1,0)	(1,0)	(1,0)	(1,0)	(1,0)	(1,0)	(1,0)	(1,0)	(1,0)	(1,0)	(1,0)	
L1D -488>	(47,6)	(79,1)	(342,1)	(1,1)	(2,1)	(65,1)	(1,0)	(1,0)	(1,0)	(1,0)	(1,0)	(1,0)	(1,0)	(1,0)	(1,0)	(1,0)	
L1D -487>	(-2,1)	(1,2)	(0,1)	(1,0)	(1,0)	(1,0)	(1,0)	(1,0)	(1,0)	(1,0)	(1,0)	(1,0)	(1,0)	(1,0)	(1,0)	(1,0)	
L1D -486>	(1,1)	(0,1)	(98,1)	(44,1)	(55,1)	(1,0)	(1,0)	(1,0)	(1,0)	(1,0)	(1,0)	(1,0)	(1,0)	(1,0)	(1,0)	(1,0)	
L1D -485>	(0,1)	(1,0)	(1,0)	(1,0)	(1,0)	(1,0)	(1,0)	(1,0)	(1,0)	(1,0)	(1,0)	(1,0)	(1,0)	(1,0)	(1,0)	(1,0)	
L1D -484>	(85,2)	(93,1)	(0,2)	(99,1)	(1,0)	(1,0)	(1,0)	(1,0)	(1,0)	(1,0)	(1,0)	(1,0)	(1,0)	(1,0)	(1,0)	(1,0)	
L1D -483>	(1,2)	(3,2)	(92,1)	(348,1)	(0,1)	(1,0)	(1,0)	(1,0)	(1,0)	(1,0)	(1,0)	(1,0)	(1,0)	(1,0)	(1,0)	(1,0)	
L1D -482>	(424,1)	(4,1)	(98,2)	(105,1)	(152,1)	(1,0)	(1,0)	(1,0)	(1,0)	(1,0)	(1,0)	(1,0)	(1,0)	(1,0)	(1,0)	(1,0)	
L1D -481>	(158,1)	(140,1)	(18,1)	(1,0)	(1,0)	(1,0)	(1,0)	(1,0)	(1,0)	(1,0)	(1,0)	(1,0)	(1,0)	(1,0)	(1,0)	(1,0)	
L1D -480>	(14,1)	(146,2)	(10,1)	(4,1)	(79,1)	(99,1)	(1,0)	(1,0)	(1,0)	(1,0)	(1,0)	(1,0)	(1,0)	(1,0)	(1,0)	(1,0)	
L1D -479>	(348,1)	(12,1)	(350,1)	(1,0)	(1,0)	(1,0)	(1,0)	(1,0)	(1,0)	(1,0)	(1,0)	(1,0)	(1,0)	(1,0)	(1,0)	(1,0)	
L1D -478>	(5,1)	(34,1)	(28,1)	(1,1)	(0,1)	(67,1)	(47,1)	(352,1)	(1,0)	(1,0)	(1,0)	(1,0)	(1,0)	(1,0)	(1,0)	(1,0)	
L1D -477>	(8,1)	(352,1)	(0,1)	(1,0)	(1,0)	(1,0)	(1,0)	(1,0)	(1,0)	(1,0)	(1,0)	(1,0)	(1,0)	(1,0)	(1,0)	(1,0)	
L1D -476>	(-1,1)	(3,1)	(1,1)	(0,1)	(58,1)	(1,0)	(1,0)	(1,0)	(1,0)	(1,0)	(1,0)	(1,0)	(1,0)	(1,0)	(1,0)	(1,0)	
L1D -475>	(5,1)	(136,1)	(4,1)	(-1,1)	(0,1)	(3,1)	(442,1)	(1,0)	(1,0)	(1,0)	(1,0)	(1,0)	(1,0)	(1,0)	(1,0)	(1,0)	
L1D -474>	(55,1)	(0,1)	(5,1)	(264,1)	(146,1)	(1,1)	(1,0)	(1,0)	(1,0)	(1,0)	(1,0)	(1,0)	(1,0)	(1,0)	(1,0)	(1,0)	
L1D -473>	(1,1)	(140,2)	(1,0)	(1,0)	(1,0)	(1,0)	(1,0)	(1,0)	(1,0)	(1,0)	(1,0)	(1,0)	(1,0)	(1,0)	(1,0)	(1,0)	
L1D -472>	(0,2)	(1,1)	(342,1)	(4,1)	(356,1)	(101,1)	(5,1)	(336,1)	(1,0)	(1,0)	(1,0)	(1,0)	(1,0)	(1,0)	(1,0)	(1,0)	
L1D -471>	(0,2)	(438,1)	(142,1)	(366,1)	(360,1)	(1,0)	(1,0)	(1,0)	(1,0)	(1,0)	(1,0)	(1,0)	(1,0)	(1,0)	(1,0)	(1,0)	
L1D -470>	(98,1)	(0,8)	(45,1)	(1,0)	(1,0)	(1,0)	(1,0)	(1,0)	(1,0)	(1,0)	(1,0)	(1,0)	(1,0)	(1,0)	(1,0)	(1,0)	
L1D -469>	(0,1)	(116,1)	(82,1)	(1,0)	(1,0)	(1,0)	(1,0)	(1,0)	(1,0)	(1,0)	(1,0)	(1,0)	(1,0)	(1,0)	(1,0)	(1,0)	
L1D -468>	(107,1)	(69,1)	(1,2)	(346,1)	(146,1)	(4,1)	(1,0)	(1,0)	(1,0)	(1,0)	(1,0)	(1,0)	(1,0)	(1,0)	(1,0)	(1,0)	
L1D -467>	(0,2)	(-2,1)	(126,1)	(108,1)	(-1,1)	(1,0)	(1,0)	(1,0)	(1,0)	(1,0)	(1,0)	(1,0)	(1,0)	(1,0)	(1,0)	(1,0)	
L1D -466>	(1,2)	(0,2)	(344,1)	(461,1)	(82,1)	(1,0)	(1,0)	(1,0)	(1,0)	(1,0)	(1,0)	(1,0)	(1,0)	(1,0)	(1,0)	(1,0)	
L1D -465>	(364,1)	(29,1)	(-1,1)	(0,1)	(5,1)	(1,0)	(1,0)	(1,0)	(1,0)	(1,0)	(1,0)	(1,0)	(1,0)	(1,0)	(1,0)	(1,0)	
L1D -464>	(385,3)	(-1,1)	(80,1)	(0,2)	(3,1)	(366,1)	(472,1)	(1,0)	(1,0)	(1,0)	(1,0)	(1,0)	(1,0)	(1,0)	(1,0)	(1,0)	
L1D -463>	(0,1)	(144,1)	(122,1)	(1,0)	(1,0)	(1,0)	(1,0)	(1,0)	(1,0)	(1,0)	(1,0)	(1,0)	(1,0)	(1,0)	(1,0)	(1,0)	
L1D -462>	(129,1)	(0,4)	(366,1)	(1,1)	(77,1)	(268,1)	(1,0)	(1,0)	(1,0)	(1,0)	(1,0)	(1,0)	(1,0)	(1,0)	(1,0)	(1,0)	
L1D -461>	(108,2)	(6,1)	(68,1)	(0,1)	(-10,1)	(1,1)	(1,0)	(1,0)	(1,0)	(1,0)	(1,0)	(1,0)	(1,0)	(1,0)	(1,0)	(1,0)	
L1D -460>	(107,1)	(85,3)	(2,1)	(0,2)	(344,1)	(1,1)	(47,1)	(1,0)	(1,0)	(1,0)	(1,0)	(1,0)	(1,0)	(1,0)	(1,0)	(1,0)	
L1D -459>	(120,1)	(368,1)	(354,1)	(1,1)	(300,1)	(5,1)	(2,1)	(0,1)	(124,1)	(1,0)	(1,0)	(1,0)	(1,0)	(1,0)	(1,0)	(1,0)	
L1D -458>	(91,2)	(0,2)	(374,1)	(362,1)	(1,2)	(134,1)	(-6,1)	(98,1)	(1,0)	(1,0)	(1,0)	(1,0)	(1,0)	(1,0)	(1,0)	(1,0)	
L1D -457>	(0,2)	(-10,2)	(112,1)	(5,1)	(1,0)	(1,0)	(1,0)	(1,0)	(1,0)	(1,0)	(1,0)	(1,0)	(1,0)	(1,0)	(1,0)	(1,0)	
L1D -456>	(71,1)	(374,1)	(1,2)	(91,1)	(5,1)	(428,1)	(0,3)	(372,1)	(441,1)	(140,1)	(385,2)	(370,1)	(50,1)	(304,1)	(348,1)	(1,0)	
L1D -455>	(1,2)	(68,22)	(14,1)	(5,1)	(-10,4)	(86,1)	(124,1)	(29,1)	(2,1)	(4,1)	(1,0)	(1,0)	(1,0)	(1,0)	(1,0)	(1,0)	
L1D -454>	(1,12)	(79,1)	(0,24)	(57,2)	(83,1)	(457,1)	(442,1)	(374,1)	(1,0)	(1,0)	(1,0)	(1,0)	(1,0)	(1,0)	(1,0)	(1,0)	
L1D -453>	(1,2)	(334,1)	(112,1)	(29,1)	(110,1)	(-10,1)	(447,1)	(1,0)	(1,0)	(1,0)	(1,0)	(1,0)	(1,0)	(1,0)	(1,0)	(1,0)	
L1D -452>	(1,3)	(69,1)	(318,1)	(378,1)	(366,1)	(1,0)	(1,0)	(1,0)	(1,0)	(1,0)	(1,0)	(1,0)	(1,0)	(1,0)	(1,0)	(1,0)	
L1D -451>	(1,2)	(439,1)	(100,1)	(378,1)	(70,3)	(0,1)	(120,1)	(1,0)	(1,0)	(1,0)	(1,0)	(1,0)	(1,0)	(1,0)	(1,0)	(1,0)	
L1D -450>	(1,1)	(5,1)	(0,2)	(97,1)	(290,1)	(1,0)	(1,0)	(1,0)	(1,0)	(1,0)	(1,0)	(1,0)	(1,0)	(1,0)	(1,0)	(1,0)	
L1D -449>	(68,91)	(1,2)	(110,3)	(2,1)	(-10,1)	(1,0)	(1,0)	(1,0)	(1,0)	(1,0)	(1,0)	(1,0)	(1,0)	(1,0)	(1,0)	(1,0)	
L1D -448>	(378,2)	(0,4)	(68,4)	(380,1)	(48,1)	(85,1)	(1,0)	(1,0)	(1,0)	(1,0)	(1,0)	(1,0)	(1,0)	(1,0)	(1,0)	(1,0)	
L1D -447>	(5,10)	(414,4)	(0,3)	(1,3)	(-6,1)	(108,1)	(-14,1)	(132,1)	(-28,2)	(42,1)	(1,0)	(1,0)	(1,0)	(1,0)	(1,0)	(1,0)	
L1D -446>	(61,1)	(2,1)	(77,1)	(0,2)	(1,2)	(4,1)	(382,1)	(1,0)	(1,0)	(1,0)	(1,0)	(1,0)	(1,0)	(1,0)	(1,0)	(1,0)	
L1D -445>	(5,3)	(2,2)	(20,1)	(-10,1)	(380,1)	(1,1)	(1,0)	(1,0)	(1,0)	(1,0)	(1,0)	(1,0)	(1,0)	(1,0)	(1,0)	(1,0)	
L1D -444>	(0,7)	(1,2)	(425,1)	(445,1)	(17,1)	(310,1)	(105,1)	(-12,1)	(356,1)	(384,2)	(1,0)	(1,0)	(1,0)	(1,0)	(1,0)	(1,0)	
L1D -443>	(-28,1)	(386,1)	(1,2)	(5,1)	(402,1)	(0,1)	(102,1)	(4,1)	(2,1)	(1,0)	(1,0)	(1,0)	(1,0)	(1,0)	(1,0)	(1,0)	
L1D -442>	(61,2)	(386,1)	(53,2)	(409,2)	(336,1)	(0,3)	(1,2)	(107,1)	(-36,1)	(40,1)	(5,1)	(214,1)	(124,1)	(1,0)	(1,0)	(1,0)	
L1D -441>	(29,2)	(2,1)	(-10,2)	(60,1)	(0,1)	(1,1)	(122,1)	(5,1)	(396,1)	(1,0)	(1,0)	(1,0)	(1,0)	(1,0)	(1,0)	(1,0)	
L1D -440>	(0,1)	(1,2)	(61,2)	(-2,1)	(24,1)	(407,1)	(34,1)	(73,1)	(440,1)	(20,1)	(1,0)	(1,0)	(1,0)	(1,0)	(1,0)	(1,0)	
L1D -439>	(1,3)	(258,1)	(5,6)	(116,3)	(0,2)	(70,1)	(2,2)	(124,1)	(390,1)	(1,0)	(1,0)	(1,0)	(1,0)	(1,0)	(1,0)	(1,0)	
L1D -438>	(0,2)	(53,1)	(124,1)	(79,1)	(142,1)	(61,1)	(390,1)	(438,1)	(4,2)	(91,1)	(392,1)	(1,0)	(1,0)	(1,0)	(1,0)	(1,0)	
L1D -437>	(1,3)	(33,1)	(336,1)	(-20,1)	(10,1)	(-10,1)	(278,1)	(390,1)	(102,1)	(5,1)	(1,0)	(1,0)	(1,0)	(1,0)	(1,0)	(1,0)	
L1D -436>	(0,5)	(63,2)	(1,1)	(108,1)	(390,1)	(433,1)	(54,1)	(118,1)	(392,1)	(1,0)	(1,0)	(1,0)	(1,0)	(1,0)	(1,0)	(1,0)	
L1D -435>	(88,1)	(120,1)	(0,2)	(70,1)	(276,1)	(1,2)	(7,1)	(10,1)	(1,0)	(1,0)	(1,0)	(1,0)	(1,0)	(1,0)	(1,0)	(1,0)	
L1D -434>	(1,6)	(0,4)	(392,1)	(5,3)	(63,1)	(108,1)	(401,1)	(29,1)	(394,1)	(24,1)	(124,1)	(-3,1)	(1,0)	(1,0)	(1,0)	(1,0)	
L1D -433>	(2,3)	(-10,2)	(-34,1)	(0,2)	(5,3)	(396,1)	(1,2)	(1,0)	(1,0)	(1,0)	(1,0)	(1,0)	(1,0)	(1,0)	(1,0)	(1,0)	
L1D -432>	(414,2)	(394,3)	(396,1)	(0,3)	(1,3)	(2,1)	(3,2)	(61,1)	(1,0)	(1,0)	(1,0)	(1,0)	(1,0)	(1,0)	(1,0)	(1,0)	
L1D -431>	(398,1)	(300,1)	(1,2)	(4,1)	(1,0)	(1,0)	(1,0)	(1,0)	(1,0)	(1,0)	(1,0)	(1,0)	(1,0)	(1,0)	(1,0)	(1,0)	
L1D -430>	(412,2)	(410,1)	(122,1)	(362,1)	(0,3)	(61,1)	(100,1)	(106,1)	(102,1)	(144,1)	(55,1)	(1,3)	(63,2)	(1,0)	(1,0)	(1,0)	
L1D -429>	(1,2)	(5,5)	(-20,1)	(2,2)	(0,4)	(-18,1)	(-28,1)	(400,1)	(-10,1)	(29,1)	(7,1)	(1,0)	(1,0)	(1,0)	(1,0)	(1,0)	
L1D -428>	(398,1)	(100,1)	(75,1)	(1,1)	(400,1)	(146,1)	(0,1)	(61,1)	(410,1)	(1,0)	(1,0)	(1,0)	(1,0)	(1,0)	(1,0)	(1,0)	
L1D -427>	(1,3)	(5,4)	(-10,1)	(374,1)	(7,1)	(2,1)	(402,3)	(-5,1)	(-28,1)	(18,1)	(0,3)	(348,1)	(394,1)	(1,0)	(1,0)	(1,0)	
L1D -426>	(0,6)	(1,42)	(27,34)	(414,9)	(404,1)	(40,14)	(4,6)	(34,2)	(37,1)	(-20,1)	(338,1)	(356,1)	(53,1)	(348,1)	(61,1)	(28,1)	
L1D -425>	(5,3)	(0,4)	(402,1)	(1,5)	(392,1)	(-6,1)	(2,2)	(-4,1)	(362,1)	(1,0)	(1,0)	(1,0)	(1,0)	(1,0)	(1,0)	(1,0)	
L1D -424>	(0,6)	(406,2)	(-56,1)	(-20,1)	(412,2)	(5,1)	(404,2)	(103,1)	(1,3)	(71,1)	(4,1)	(1,0)	(1,0)	(1,0)	(1,0)	(1,0)	
L1D -423>	(1,9)	(5,9)	(-10,5)	(10,1)	(2,5)	(4,1)	(382,2)	(376,1)	(0,1)	(390,2)	(1,0)	(1,0)	(1,0)	(1,0)	(1,0)	(1,0)	
L1D -422>	(2,43)	(1,4)	(404,1)	(408,1)	(348,1)	(14,1)	(0,5)	(389,1)	(91,1)	(352,1)	(34,1)	(386,1)	(368,1)	(89,1)	(124,1)	(122,1)	
L1D -421>	(0,2)	(421,2)	(4,1)	(1,5)	(415,1)	(-9,1)	(-10,2)	(2,1)	(380,1)	(-1,1)	(5,2)	(384,1)	(1,0)	(1,0)	(1,0)	(1,0)	
L1D -420>	(0,3)	(69,3)	(83,1)	(364,1)	(34,1)	(1,5)	(146,1)	(92,1)	(5,1)	(396,1)	(28,1)	(420,1)	(1,0)	(1,0)	(1,0)	(1,0)	
L1D -419>	(1,5)	(11,3)	(-32,1)	(408,1)	(5,3)	(175,1)	(-10,2)	(16,1)	(378,3)	(76,1)	(0,4)	(-26,1)	(410,1)	(350,1)	(420,1)	(29,1)	
L1D -418>	(385,1)	(406,3)	(1,3)	(410,2)	(0,11)	(412,1)	(246,1)	(400,1)	(419,4)	(336,1)	(422,1)	(418,3)	(5,1)	(100,1)	(1,0)	(1,0)	
L1D -417>	(418,1)	(-10,91)	(384,0)	(5,0)	(1,0)	(1,0)	(1,0)	(1,0)	(1,0)	(1,0)	(1,0)	(1,0)	(1,0)	(1,0)	(1,0)	(1,0)	
L1D -416>	(1,25)	(0,18)	(37,1)	(61,1)	(414,30)	(417,1)	(107,1)	(412,3)	(404,1)	(410,1)	(416,14)	(415,2)	(17,1)	(110,1)	(1,0)	(1,0)	
L1D -415>	(1,20)	(0,50)	(415,27)	(5,2)	(414,85)	(-12,0)	(-26,0)	(2,0)	(-2,3)	(-42,0)	(-1,1)	(416,1)	(-80,0)	(-3,0)	(1,0)	(1,0)	
L1D -414>	(0,57)	(1,7)	(206,0)	(-1,2)	(414,111)	(415,18)	(-2,4)	(164,0)	(413,0)	(-18,0)	(-45,0)	(-23,0)	(30,0)	(102,0)	(40,0)	(88,0)	
L1D -413>	(412,2)	(0,15)	(90,0)	(11,2)	(-10,1)	(108,0)	(212,0)	(-15,0)	(-1,10)	(1,3)	(413,125)	(-41,0)	(9,0)	(71,0)	(414,35)	(-45,0)	
L1D -412>	(412,112)	(413,50)	(0,57)	(1,6)	(78,1)	(-52,1)	(-76,1)	(394,1)	(17,1)	(414,1)	(418,1)	(1,0)	(1,0)	(1,0)	(1,0)	(1,0)	
L1D -411>	(0,121)	(5,0)	(-7,0)	(412,0)	(1,0)	(1,0)	(1,0)	(1,0)	(1,0)	(1,0)	(1,0)	(1,0)	(1,0)	(1,0)	(1,0)	(1,0)	
L1D -410>	(-2,1)	(3,4)	(410,6)	(411,3)	(0,4)	(24,1)	(53,2)	(414,1)	(92,1)	(1,4)	(402,2)	(424,1)	(377,2)	(404,1)	(5,1)	(236,1)	
L1D -409>	(0,3)	(1,7)	(409,4)	(2,3)	(-10,1)	(-1,1)	(5,3)	(410,2)	(414,1)	(420,1)	(376,1)	(403,1)	(1,0)	(1,0)	(1,0)	(1,0)	
L1D -408>	(1,4)	(0,4)	(396,2)	(-38,1)	(4,1)	(24,1)	(-1,1)	(409,2)	(408,2)	(5,1)	(216,1)	(390,2)	(412,1)	(394,1)	(-54,1)	(1,0)	
L1D -407>	(0,6)	(1,3)	(407,5)	(5,4)	(408,1)	(62,1)	(-10,2)	(1,0)	(1,0)	(1,0)	(1,0)	(1,0)	(1,0)	(1,0)	(1,0)	(1,0)	
L1D -406>	(5,1)	(394,5)	(1,8)	(406,2)	(388,1)	(0,7)	(352,1)	(407,1)	(92,1)	(400,2)	(1,0)	(1,0)	(1,0)	(1,0)	(1,0)	(1,0)	
L1D -405>	(0,2)	(358,1)	(54,1)	(1,4)	(384,1)	(56,1)	(364,1)	(403,1)	(2,4)	(405,4)	(406,1)	(414,1)	(368,1)	(5,2)	(398,1)	(1,0)	
L1D -404>	(1,3)	(0,8)	(404,5)	(314,1)	(392,5)	(364,1)	(405,2)	(410,1)	(386,2)	(-28,2)	(398,1)	(385,1)	(61,1)	(108,1)	(1,0)	(1,0)	
L1D -403>	(403,10)	(336,1)	(5,3)	(354,1)	(404,2)	(0,2)	(1,3)	(402,1)	(366,1)	(2,1)	(1,0)	(1,0)	(1,0)	(1,0)	(1,0)	(1,0)	
L1D -402>	(403,13)	(382,1)	(3,2)	(390,6)	(402,8)	(0,6)	(404,1)	(-2,1)	(4,1)	(-12,1)	(1,0)	(1,0)	(1,0)	(1,0)	(1,0)	(1,0)	
L1D -401>	(1,4)	(0,2)	(401,9)	(402,11)	(-10,1)	(382,1)	(2,1)	(5,1)	(395,2)	(407,1)	(48,1)	(1,0)	(1,0)	(1,0)	(1,0)	(1,0)	
L1D -400>	(401,10)	(1,2)	(400,8)	(0,9)	(3,1)	(208,1)	(58,1)	(392,1)	(18,1)	(43,1)	(5,1)	(382,1)	(2,2)	(388,1)	(1,0)	(1,0)	
L1D -399>	(0,4)	(399,6)	(330,1)	(2,1)	(126,1)	(1,6)	(5,1)	(400,1)	(56,1)	(404,1)	(8,1)	(1,0)	(1,0)	(1,0)	(1,0)	(1,0)	
L1D -398>	(395,5)	(1,7)	(0,6)	(398,5)	(386,2)	(-54,1)	(399,3)	(404,2)	(370,1)	(24,1)	(414,1)	(408,1)	(306,1)	(6,1)	(1,0)	(1,0)	
L1D -397>	(398,2)	(397,6)	(5,2)	(0,1)	(8,3)	(10,1)	(282,1)	(1,1)	(1,0)	(1,0)	(1,0)	(1,0)	(1,0)	(1,0)	(1,0)	(1,0)	
L1D -396>	(402,1)	(1,5)	(5,1)	(396,7)	(0,4)	(386,1)	(-2,1)	(397,1)	(1,0)	(1,0)	(1,0)	(1,0)	(1,0)	(1,0)	(1,0)	(1,0)	
L1D -395>	(395,10)	(1,2)	(0,3)	(412,1)	(8,1)	(4,1)	(2,1)	(385,1)	(1,0)	(1,0)	(1,0)	(1,0)	(1,0)	(1,0)	(1,0)	(1,0)	
L1D -394>	(1,6)	(394,1)	(5,1)	(0,7)	(-1,1)	(458,1)	(395,7)	(76,1)	(37,1)	(388,1)	(52,1)	(382,3)	(43,1)	(376,1)	(1,0)	(1,0)	
L1D -393>	(0,7)	(394,7)	(393,4)	(1,2)	(5,1)	(15,1)	(-20,1)	(1,0)	(1,0)	(1,0)	(1,0)	(1,0)	(1,0)	(1,0)	(1,0)	(1,0)	
L1D -392>	(392,2)	(348,1)	(1,4)	(394,1)	(370,1)	(393,5)	(0,1)	(5,1)	(-94,1)	(410,1)	(1,0)	(1,0)	(1,0)	(1,0)	(1,0)	(1,0)	
L1D -391>	(391,6)	(2,3)	(0,2)	(1,7)	(312,1)	(-10,1)	(392,3)	(118,1)	(414,1)	(5,1)	(1,0)	(1,0)	(1,0)	(1,0)	(1,0)	(1,0)	
L1D -390>	(390,8)	(0,5)	(1,7)	(5,4)	(2,2)	(391,3)	(3,1)	(24,1)	(-108,1)	(74,1)	(16,1)	(-2,1)	(1,0)	(1,0)	(1,0)	(1,0)	
L1D -389>	(389,7)	(0,2)	(1,2)	(-9,1)	(390,1)	(14,1)	(306,1)	(248,1)	(24,1)	(396,1)	(2,1)	(395,1)	(388,1)	(385,1)	(1,0)	(1,0)	
L1D -388>	(0,3)	(388,5)	(376,1)	(-44,1)	(5,1)	(1,1)	(184,1)	(-2,1)	(392,1)	(91,1)	(120,1)	(136,1)	(1,0)	(1,0)	(1,0)	(1,0)	
L1D -387>	(0,7)	(114,31)	(406,1)	(248,1)	(5,1)	(387,5)	(1,2)	(388,1)	(8,1)	(132,1)	(318,1)	(-7,1)	(276,1)	(2,1)	(-30,1)	(-10,1)	
L1D -386>	(386,71)	(6,0)	(0,1)	(1,0)	(1,0)	(1,0)	(1,0)	(1,0)	(1,0)	(1,0)	(1,0)	(1,0)	(1,0)	(1,0)	(1,0)	(1,0)	
L1D -385>	(0,7)	(385,9)	(386,2)	(390,1)	(1,3)	(-7,1)	(1,0)	(1,0)	(1,0)	(1,0)	(1,0)	(1,0)	(1,0)	(1,0)	(1,0)	(1,0)	
L1D -384>	(1,5)	(385,3)	(372,5)	(0,4)	(384,3)	(-48,1)	(351,1)	(403,1)	(356,1)	(258,1)	(1,0)	(1,0)	(1,0)	(1,0)	(1,0)	(1,0)	
L1D -383>	(1,3)	(155,2)	(384,3)	(128,2)	(0,3)	(-1,1)	(-2,1)	(383,3)	(414,1)	(110,1)	(1,0)	(1,0)	(1,0)	(1,0)	(1,0)	(1,0)	
L1D -382>	(-28,2)	(379,1)	(382,2)	(106,1)	(383,2)	(73,1)	(1,2)	(90,1)	(2,2)	(0,1)	(26,2)	(415,1)	(1,0)	(1,0)	(1,0)	(1,0)	
L1D -381>	(381,8)	(114,95)	(152,7)	(0,6)	(290,1)	(382,2)	(2,3)	(15,1)	(58,1)	(7,1)	(42,1)	(-8,1)	(73,1)	(1,3)	(5,1)	(82,1)	
L1D -380>	(1,5)	(6,2)	(24,1)	(5,1)	(3,2)	(0,3)	(414,1)	(381,2)	(-24,1)	(402,1)	(472,1)	(1,0)	(1,0)	(1,0)	(1,0)	(1,0)	
L1D -379>	(379,5)	(378,1)	(368,1)	(3,1)	(1,2)	(5,1)	(410,1)	(0,5)	(28,1)	(-2,1)	(1,0)	(1,0)	(1,0)	(1,0)	(1,0)	(1,0)	
L1D -378>	(378,4)	(0,12)	(79,2)	(379,1)	(1,6)	(412,1)	(-60,1)	(4,2)	(170,1)	(400,1)	(1,0)	(1,0)	(1,0)	(1,0)	(1,0)	(1,0)	
L1D -377>	(1,4)	(126,4)	(377,3)	(376,1)	(412,1)	(0,2)	(110,1)	(6,2)	(378,1)	(-7,1)	(1,0)	(1,0)	(1,0)	(1,0)	(1,0)	(1,0)	
L1D -376>	(376,2)	(377,2)	(5,1)	(1,2)	(4,1)	(74,1)	(3,4)	(102,1)	(-1,1)	(-6,1)	(124,1)	(1,0)	(1,0)	(1,0)	(1,0)	(1,0)	
L1D -375>	(0,3)	(374,1)	(1,1)	(402,1)	(-7,1)	(124,3)	(24,1)	(-116,1)	(-2,2)	(375,1)	(-38,1)	(3,1)	(5,2)	(6,1)	(1,0)	(1,0)	
L1D -374>	(356,1)	(107,3)	(374,5)	(0,7)	(1,1)	(32,1)	(6,2)	(264,1)	(-4,1)	(76,1)	(352,1)	(148,1)	(5,1)	(18,1)	(98,1)	(91,1)	
L1D -373>	(2,2)	(373,3)	(58,1)	(0,3)	(74,3)	(374,2)	(1,1)	(-7,2)	(263,1)	(278,1)	(5,2)	(454,1)	(3,1)	(340,1)	(274,1)	(400,1)	
L1D -372>	(372,3)	(1,3)	(373,2)	(5,2)	(0,5)	(126,1)	(142,1)	(6,1)	(2,2)	(290,1)	(3,2)	(53,1)	(1,0)	(1,0)	(1,0)	(1,0)	
L1D -371>	(1,6)	(72,10)	(-2,1)	(372,1)	(371,2)	(122,2)	(56,1)	(8,1)	(276,1)	(5,1)	(272,1)	(1,0)	(1,0)	(1,0)	(1,0)	(1,0)	
L1D -370>	(-128,1)	(370,2)	(358,1)	(0,4)	(1,5)	(2,2)	(371,1)	(260,1)	(422,1)	(-137,2)	(294,1)	(448,1)	(3,1)	(1,0)	(1,0)	(1,0)	
L1D -369>	(63,1)	(70,4)	(1,3)	(4,3)	(365,1)	(3,2)	(-137,1)	(369,5)	(246,1)	(224,1)	(0,2)	(400,1)	(2,1)	(-7,1)	(370,1)	(1,0)	
L1D -368>	(0,3)	(369,7)	(5,1)	(368,1)	(356,1)	(30,1)	(1,2)	(2,1)	(1,0)	(1,0)	(1,0)	(1,0)	(1,0)	(1,0)	(1,0)	(1,0)	
L1D -367>	(1,4)	(367,2)	(-38,1)	(92,1)	(2,1)	(286,1)	(0,2)	(18,1)	(414,1)	(368,3)	(3,1)	(69,1)	(-68,1)	(402,1)	(1,0)	(1,0)	
L1D -366>	(-72,1)	(366,3)	(1,1)	(-1,2)	(0,4)	(365,3)	(5,1)	(362,1)	(48,1)	(1,0)	(1,0)	(1,0)	(1,0)	(1,0)	(1,0)	(1,0)	
L1D -365>	(-1,1)	(365,3)	(5,1)	(1,2)	(60,35)	(0,4)	(270,1)	(6,1)	(2,2)	(66,1)	(256,1)	(80,1)	(414,1)	(1,0)	(1,0)	(1,0)	
L1D -364>	(364,6)	(1,3)	(0,8)	(376,1)	(78,1)	(363,1)	(365,1)	(194,1)	(416,1)	(1,0)	(1,0)	(1,0)	(1,0)	(1,0)	(1,0)	(1,0)	
L1D -363>	(-1,1)	(1,6)	(0,3)	(121,1)	(416,1)	(18,1)	(344,1)	(363,4)	(352,1)	(48,1)	(8,1)	(4,1)	(56,1)	(72,1)	(1,0)	(1,0)	
L1D -362>	(0,5)	(1,6)	(52,1)	(120,1)	(2,1)	(-20,1)	(362,4)	(363,2)	(208,1)	(3,1)	(78,2)	(71,1)	(386,1)	(86,1)	(-2,1)	(8,1)	
L1D -361>	(1,7)	(91,2)	(362,3)	(361,3)	(2,1)	(108,2)	(24,1)	(62,2)	(8,1)	(4,1)	(82,1)	(-58,1)	(-2,1)	(6,1)	(0,1)	(1,0)	
L1D -360>	(3,1)	(0,12)	(360,4)	(121,1)	(146,2)	(1,2)	(2,2)	(-2,2)	(414,1)	(400,1)	(5,1)	(6,1)	(92,1)	(1,0)	(1,0)	(1,0)	
L1D -359>	(60,76)	(0,2)	(-14,0)	(1,1)	(2,0)	(302,0)	(359,2)	(24,0)	(1,0)	(1,0)	(1,0)	(1,0)	(1,0)	(1,0)	(1,0)	(1,0)	
L1D -358>	(358,1)	(6,1)	(60,1)	(359,2)	(91,2)	(-128,1)	(0,6)	(1,3)	(352,1)	(355,1)	(4,2)	(272,1)	(120,2)	(5,1)	(82,2)	(97,1)	
L1D -357>	(82,2)	(359,1)	(357,4)	(5,3)	(0,5)	(-38,1)	(-2,2)	(206,1)	(1,2)	(358,1)	(3,4)	(414,1)	(18,2)	(6,1)	(-30,1)	(1,0)	
L1D -356>	(356,5)	(-6,1)	(1,3)	(357,3)	(-2,1)	(0,4)	(1,0)	(1,0)	(1,0)	(1,0)	(1,0)	(1,0)	(1,0)	(1,0)	(1,0)	(1,0)	
L1D -355>	(2,1)	(3,3)	(56,3)	(-124,1)	(-37,1)	(355,3)	(0,6)	(1,2)	(99,1)	(4,1)	(6,2)	(76,1)	(1,0)	(1,0)	(1,0)	(1,0)	
L1D -354>	(0,9)	(354,4)	(240,1)	(-16,1)	(69,1)	(1,4)	(292,1)	(4,1)	(-30,1)	(1,0)	(1,0)	(1,0)	(1,0)	(1,0)	(1,0)	(1,0)	
L1D -353>	(354,3)	(1,3)	(0,4)	(-32,1)	(3,1)	(353,2)	(64,1)	(414,1)	(6,2)	(-2,2)	(226,1)	(2,1)	(126,1)	(-10,1)	(1,0)	(1,0)	
L1D -352>	(-1,94)	(0,1)	(3,1)	(357,1)	(358,1)	(352,1)	(346,0)	(397,0)	(1,1)	(353,1)	(340,0)	(-10,0)	(6,1)	(9,0)	(1,0)	(1,0)	
L1D -351>	(69,1)	(1,5)	(278,1)	(3,3)	(24,1)	(351,5)	(-23,1)	(414,1)	(0,3)	(4,1)	(109,1)	(-2,1)	(77,1)	(1,0)	(1,0)	(1,0)	
L1D -350>	(349,1)	(81,1)	(128,1)	(0,5)	(1,1)	(119,1)	(136,1)	(6,1)	(350,2)	(262,1)	(414,1)	(1,0)	(1,0)	(1,0)	(1,0)	(1,0)	
L1D -349>	(5,1)	(1,4)	(64,1)	(-7,1)	(262,1)	(6,1)	(-2,2)	(376,1)	(349,3)	(56,1)	(-70,1)	(-8,1)	(4,1)	(3,1)	(350,1)	(348,1)	
L1D -348>	(1,7)	(0,8)	(349,3)	(402,1)	(348,2)	(345,1)	(6,2)	(184,1)	(2,1)	(-1,1)	(134,1)	(4,1)	(150,1)	(352,1)	(5,1)	(64,1)	
L1D -347>	(3,3)	(83,1)	(18,1)	(1,4)	(109,1)	(347,5)	(348,1)	(0,2)	(344,1)	(84,3)	(64,1)	(-2,1)	(1,0)	(1,0)	(1,0)	(1,0)	
L1D -346>	(341,104)	(0,13)	(4,78)	(-137,1)	(346,1)	(-1,1)	(6,0)	(266,0)	(1,0)	(1,0)	(1,0)	(1,0)	(1,0)	(1,0)	(1,0)	(1,0)	
L1D -345>	(1,3)	(0,5)	(346,1)	(242,2)	(70,1)	(345,2)	(-2,1)	(-45,1)	(-60,1)	(6,2)	(380,1)	(1,0)	(1,0)	(1,0)	(1,0)	(1,0)	
L1D -344>	(0,5)	(83,2)	(130,1)	(-1,1)	(288,1)	(208,1)	(345,2)	(-82,1)	(363,1)	(1,2)	(390,1)	(344,1)	(1,0)	(1,0)	(1,0)	(1,0)	
L1D -343>	(338,97)	(1,2)	(6,1)	(-1,1)	(344,0)	(0,1)	(4,0)	(1,0)	(1,0)	(1,0)	(1,0)	(1,0)	(1,0)	(1,0)	(1,0)	(1,0)	
L1D -342>	(2,1)	(1,0)	(0,0)	(-4,84)	(-48,0)	(-1,0)	(337,3)	(343,0)	(1,0)	(1,0)	(1,0)	(1,0)	(1,0)	(1,0)	(1,0)	(1,0)	
L1D -341>	(-2,0)	(0,20)	(341,6)	(4,112)	(-42,0)	(5,29)	(342,0)	(346,6)	(-5,0)	(1,0)	(1,0)	(1,0)	(1,0)	(1,0)	(1,0)	(1,0)	
L1D -340>	(341,38)	(3,1)	(1,3)	(0,5)	(112,1)	(73,1)	(340,19)	(412,1)	(34,1)	(-18,1)	(6,1)	(1,0)	(1,0)	(1,0)	(1,0)	(1,0)	
L1D -339>	(3,2)	(0,7)	(-2,3)	(-3,2)	(42,1)	(339,1)	(1,2)	(56,1)	(184,1)	(18,1)	(99,2)	(340,1)	(114,1)	(400,1)	(352,1)	(6,1)	
L1D -338>	(114,12)	(338,17)	(117,5)	(1,21)	(339,6)	(-3,94)	(0,7)	(268,1)	(77,1)	(124,1)	(168,11)	(410,1)	(341,1)	(1,0)	(1,0)	(1,0)	
L1D -337>	(6,2)	(336,2)	(114,85)	(117,55)	(-4,57)	(1,0)	(337,1)	(130,0)	(4,0)	(342,5)	(338,1)	(-2,0)	(104,2)	(3,0)	(1,0)	(1,0)	
L1D -336>	(19,2)	(5,2)	(102,1)	(335,1)	(0,6)	(341,41)	(-5,3)	(-1,2)	(4,2)	(38,1)	(1,1)	(336,1)	(337,3)	(428,1)	(292,1)	(1,0)	
L1D -335>	(5,3)	(6,1)	(0,3)	(-2,3)	(335,4)	(1,4)	(-38,1)	(24,3)	(253,1)	(18,1)	(-1,1)	(4,1)	(-24,1)	(132,1)	(258,1)	(248,2)	
L1D -334>	(175,1)	(4,4)	(1,4)	(174,1)	(335,2)	(0,4)	(-5,1)	(-1,1)	(-18,1)	(414,1)	(246,1)	(1,0)	(1,0)	(1,0)	(1,0)	(1,0)	
L1D -333>	(0,5)	(26,1)	(6,5)	(333,1)	(-2,1)	(1,3)	(3,3)	(186,1)	(414,1)	(114,1)	(334,4)	(146,1)	(-64,1)	(4,1)	(234,1)	(91,2)	
L1D -332>	(1,4)	(333,1)	(6,1)	(4,1)	(0,6)	(332,4)	(236,1)	(1,0)	(1,0)	(1,0)	(1,0)	(1,0)	(1,0)	(1,0)	(1,0)	(1,0)	
L1D -331>	(1,4)	(3,4)	(14,1)	(2,1)	(0,6)	(18,1)	(144,1)	(6,1)	(4,1)	(-2,1)	(116,1)	(-9,1)	(1,0)	(1,0)	(1,0)	(1,0)	
L1D -330>	(0,9)	(108,2)	(333,2)	(4,3)	(368,1)	(-1,2)	(5,1)	(61,1)	(86,1)	(77,1)	(222,1)	(116,1)	(1,0)	(1,0)	(1,0)	(1,0)	
L1D -329>	(0,9)	(1,3)	(61,1)	(3,1)	(342,1)	(-126,1)	(54,1)	(-38,1)	(4,1)	(6,2)	(-2,1)	(1,0)	(1,0)	(1,0)	(1,0)	(1,0)	
L1D -328>	(22,72)	(-18,0)	(15,96)	(311,0)	(114,0)	(0,0)	(-102,0)	(1,0)	(1,0)	(1,0)	(1,0)	(1,0)	(1,0)	(1,0)	(1,0)	(1,0)	
L1D -327>	(1,2)	(0,12)	(24,2)	(-9,1)	(84,1)	(328,1)	(4,1)	(156,1)	(6,2)	(331,1)	(272,1)	(56,1)	(1,0)	(1,0)	(1,0)	(1,0)	
L1D -326>	(0,13)	(358,2)	(414,1)	(331,1)	(75,1)	(112,1)	(1,1)	(-100,1)	(1,0)	(1,0)	(1,0)	(1,0)	(1,0)	(1,0)	(1,0)	(1,0)	
L1D -325>	(0,14)	(6,8)	(26,1)	(-2,2)	(1,1)	(320,1)	(325,1)	(-20,1)	(3,1)	(24,1)	(1,0)	(1,0)	(1,0)	(1,0)	(1,0)	(1,0)	
L1D -324>	(419,1)	(0,8)	(329,1)	(322,1)	(1,4)	(-13,1)	(306,1)	(324,1)	(330,1)	(4,1)	(68,1)	(1,0)	(1,0)	(1,0)	(1,0)	(1,0)	
L1D -323>	(0,10)	(-2,1)	(1,3)	(358,1)	(3,3)	(6,1)	(146,2)	(32,1)	(136,1)	(100,1)	(-38,1)	(1,0)	(1,0)	(1,0)	(1,0)	(1,0)	
L1D -322>	(20,1)	(0,15)	(1,3)	(322,3)	(419,2)	(-12,1)	(325,4)	(99,1)	(289,1)	(311,1)	(-22,1)	(-1,1)	(1,0)	(1,0)	(1,0)	(1,0)	
L1D -321>	(98,1)	(19,1)	(0,10)	(1,4)	(18,1)	(12,1)	(321,1)	(146,2)	(3,1)	(-38,1)	(6,5)	(20,1)	(-5,1)	(-4,1)	(1,0)	(1,0)	
L1D -320>	(1,6)	(0,18)	(4,3)	(19,1)	(370,1)	(20,5)	(323,1)	(364,1)	(320,3)	(-1,1)	(414,2)	(176,1)	(-9,1)	(394,1)	(61,1)	(1,0)	
L1D -319>	(0,12)	(3,2)	(1,3)	(400,1)	(24,3)	(-2,1)	(-60,1)	(6,3)	(56,2)	(76,1)	(-1,1)	(-144,1)	(26,1)	(1,0)	(1,0)	(1,0)	
L1D -318>	(1,2)	(0,7)	(4,4)	(358,1)	(146,1)	(-65,1)	(396,1)	(376,1)	(-122,1)	(162,1)	(319,1)	(321,1)	(1,0)	(1,0)	(1,0)	(1,0)	
L1D -317>	(1,4)	(423,3)	(6,5)	(368,1)	(0,10)	(4,1)	(146,2)	(317,2)	(414,1)	(5,1)	(403,1)	(-74,1)	(2,1)	(348,1)	(1,0)	(1,0)	
L1D -316>	(1,3)	(0,14)	(2,1)	(291,2)	(321,1)	(6,1)	(340,1)	(319,1)	(4,1)	(5,1)	(3,1)	(1,0)	(1,0)	(1,0)	(1,0)	(1,0)	
L1D -315>	(0,15)	(6,9)	(1,5)	(3,6)	(26,2)	(-24,1)	(4,1)	(18,1)	(-2,2)	(222,1)	(-1,1)	(394,1)	(1,0)	(1,0)	(1,0)	(1,0)	
L1D -314>	(0,6)	(53,1)	(100,1)	(1,2)	(317,4)	(-112,1)	(54,1)	(414,1)	(1,0)	(1,0)	(1,0)	(1,0)	(1,0)	(1,0)	(1,0)	(1,0)	
L1D -313>	(26,6)	(0,11)	(1,2)	(56,2)	(2,1)	(6,6)	(310,1)	(289,1)	(24,1)	(-12,1)	(-4,1)	(20,1)	(3,1)	(1,0)	(1,0)	(1,0)	
L1D -312>	(317,1)	(4,4)	(226,1)	(0,16)	(312,2)	(414,1)	(315,2)	(98,2)	(-9,2)	(313,1)	(1,2)	(188,1)	(114,1)	(-114,1)	(92,1)	(-2,1)	
L1D -311>	(0,8)	(24,5)	(6,7)	(1,2)	(311,3)	(419,1)	(56,1)	(1,0)	(1,0)	(1,0)	(1,0)	(1,0)	(1,0)	(1,0)	(1,0)	(1,0)	
L1D -310>	(1,3)	(4,3)	(0,9)	(24,1)	(414,1)	(120,1)	(382,1)	(313,1)	(407,1)	(1,0)	(1,0)	(1,0)	(1,0)	(1,0)	(1,0)	(1,0)	
L1D -309>	(6,17)	(0,18)	(1,2)	(26,1)	(206,1)	(309,2)	(-118,1)	(90,1)	(19,1)	(-2,1)	(4,1)	(56,2)	(10,1)	(24,1)	(290,1)	(1,0)	
L1D -308>	(1,3)	(0,20)	(313,2)	(146,2)	(4,2)	(20,1)	(-9,1)	(1,0)	(1,0)	(1,0)	(1,0)	(1,0)	(1,0)	(1,0)	(1,0)	(1,0)	
L1D -307>	(0,8)	(5,1)	(6,12)	(1,1)	(4,3)	(18,1)	(10,1)	(311,1)	(26,1)	(1,0)	(1,0)	(1,0)	(1,0)	(1,0)	(1,0)	(1,0)	
L1D -306>	(0,97)	(411,1)	(309,0)	(306,13)	(340,0)	(1,0)	(1,0)	(1,0)	(1,0)	(1,0)	(1,0)	(1,0)	(1,0)	(1,0)	(1,0)	(1,0)	
L1D -305>	(12,1)	(5,1)	(0,5)	(6,14)	(43,3)	(321,12)	(1,3)	(42,1)	(19,2)	(305,2)	(452,1)	(24,1)	(392,1)	(-20,1)	(35,1)	(146,1)	
L1D -304>	(0,9)	(20,3)	(-4,1)	(3,3)	(319,1)	(307,3)	(1,2)	(6,1)	(12,1)	(146,2)	(4,1)	(1,0)	(1,0)	(1,0)	(1,0)	(1,0)	
L1D -303>	(-2,3)	(3,2)	(0,5)	(82,1)	(24,3)	(6,4)	(-1,3)	(-28,1)	(26,3)	(266,1)	(4,1)	(1,1)	(2,1)	(303,1)	(1,0)	(1,0)	
L1D -302>	(0,14)	(34,1)	(305,1)	(4,4)	(-2,1)	(1,3)	(6,2)	(-80,1)	(300,2)	(286,1)	(307,1)	(28,1)	(1,0)	(1,0)	(1,0)	(1,0)	
L1D -301>	(6,7)	(305,1)	(-2,2)	(0,9)	(1,2)	(32,1)	(-118,1)	(-124,1)	(301,1)	(298,1)	(4,1)	(146,1)	(26,1)	(1,0)	(1,0)	(1,0)	
L1D -300>	(5,1)	(17,1)	(305,5)	(0,8)	(1,1)	(275,1)	(2,4)	(303,1)	(82,1)	(-1,1)	(286,1)	(4,1)	(1,0)	(1,0)	(1,0)	(1,0)	
L1D -299>	(288,1)	(5,3)	(321,70)	(2,3)	(4,4)	(19,1)	(0,9)	(14,5)	(488,1)	(18,1)	(26,1)	(95,1)	(6,7)	(376,1)	(407,1)	(50,1)	
L1D -298>	(1,5)	(301,3)	(260,1)	(0,11)	(300,1)	(262,1)	(296,2)	(3,1)	(290,1)	(-9,1)	(274,1)	(-46,1)	(303,1)	(-196,1)	(278,1)	(62,1)	
L1D -297>	(0,14)	(6,22)	(26,5)	(1,1)	(-36,1)	(19,1)	(24,7)	(49,4)	(260,1)	(297,1)	(4,1)	(248,1)	(60,1)	(-4,1)	(278,1)	(-20,1)	
L1D -296>	(0,23)	(2,4)	(301,1)	(-98,1)	(5,1)	(-9,2)	(299,2)	(4,2)	(1,3)	(14,1)	(34,1)	(242,1)	(20,3)	(-4,1)	(19,4)	(298,1)	
L1D -295>	(6,9)	(296,3)	(14,3)	(34,1)	(0,10)	(1,4)	(26,9)	(2,3)	(24,4)	(56,1)	(20,1)	(12,1)	(19,1)	(362,1)	(297,1)	(226,1)	
L1D -294>	(0,8)	(1,5)	(-1,1)	(4,3)	(20,5)	(292,1)	(14,2)	(58,1)	(5,2)	(2,1)	(299,1)	(1,0)	(1,0)	(1,0)	(1,0)	(1,0)	
L1D -293>	(1,4)	(6,14)	(0,5)	(17,2)	(288,1)	(26,1)	(146,1)	(293,3)	(20,1)	(24,4)	(10,1)	(315,1)	(19,1)	(295,1)	(1,0)	(1,0)	
L1D -292>	(-1,60)	(268,2)	(0,9)	(2,1)	(297,2)	(1,3)	(256,1)	(264,1)	(414,1)	(-38,1)	(288,1)	(272,1)	(318,1)	(19,1)	(295,1)	(253,1)	
L1D -291>	(6,8)	(291,4)	(0,12)	(19,1)	(24,3)	(1,4)	(2,4)	(334,1)	(20,2)	(4,3)	(-102,1)	(35,1)	(26,2)	(1,0)	(1,0)	(1,0)	
L1D -290>	(19,2)	(0,12)	(20,5)	(6,5)	(368,1)	(288,2)	(414,2)	(293,4)	(1,5)	(-7,1)	(248,1)	(2,1)	(13,1)	(295,2)	(-2,1)	(436,1)	
L1D -289>	(0,15)	(19,2)	(24,1)	(5,2)	(26,1)	(1,3)	(68,1)	(6,11)	(289,4)	(2,2)	(41,1)	(4,2)	(-4,1)	(80,1)	(-20,1)	(288,1)	
L1D -288>	(20,7)	(6,2)	(287,2)	(0,16)	(4,3)	(250,3)	(362,1)	(308,1)	(291,3)	(384,1)	(2,1)	(1,4)	(302,1)	(-1,1)	(422,1)	(12,1)	
L1D -287>	(291,3)	(6,8)	(19,4)	(46,3)	(41,1)	(24,6)	(327,1)	(26,9)	(438,1)	(0,8)	(20,1)	(17,2)	(288,1)	(356,1)	(246,1)	(-106,1)	
L1D -286>	(0,17)	(20,8)	(1,6)	(286,1)	(196,1)	(261,1)	(2,2)	(288,1)	(6,2)	(265,1)	(289,2)	(274,1)	(284,1)	(146,1)	(303,1)	(1,0)	
L1D -285>	(6,11)	(24,11)	(284,1)	(289,1)	(37,17)	(258,1)	(-20,1)	(3,1)	(152,1)	(26,2)	(0,4)	(13,3)	(285,2)	(1,2)	(68,1)	(-5,1)	
L1D -284>	(19,3)	(20,5)	(290,2)	(6,2)	(289,5)	(0,12)	(-46,1)	(-18,1)	(108,1)	(-106,1)	(1,3)	(339,1)	(414,1)	(282,1)	(287,1)	(4,1)	
L1D -283>	(20,2)	(256,1)	(5,1)	(234,1)	(0,10)	(26,3)	(-5,1)	(12,1)	(4,2)	(18,1)	(1,3)	(6,7)	(19,5)	(294,1)	(258,1)	(242,1)	
L1D -282>	(-12,1)	(19,15)	(2,2)	(20,11)	(-4,1)	(257,2)	(0,11)	(-50,1)	(-6,1)	(291,1)	(280,2)	(285,3)	(4,1)	(6,1)	(348,1)	(-142,1)	
L1D -281>	(0,10)	(24,3)	(6,19)	(29,1)	(281,2)	(1,1)	(282,3)	(276,2)	(236,1)	(271,2)	(-1,1)	(-36,1)	(280,1)	(20,2)	(26,1)	(256,1)	
L1D -280>	(14,1)	(0,13)	(4,4)	(283,3)	(291,1)	(1,2)	(230,2)	(-1,1)	(250,1)	(278,4)	(6,3)	(285,1)	(281,1)	(20,2)	(2,1)	(272,1)	
L1D -279>	(280,2)	(0,14)	(8,18)	(19,1)	(1,6)	(24,11)	(26,12)	(-1,1)	(5,2)	(2,3)	(276,1)	(242,2)	(42,1)	(279,1)	(16,1)	(6,4)	
L1D -278>	(20,5)	(19,10)	(281,2)	(257,1)	(283,4)	(0,15)	(36,1)	(6,3)	(256,1)	(305,1)	(1,2)	(242,1)	(279,1)	(294,1)	(264,1)	(404,1)	
L1D -277>	(0,62)	(19,1)	(273,92)	(18,0)	(24,0)	(13,0)	(3,0)	(1,1)	(1,0)	(1,0)	(1,0)	(1,0)	(1,0)	(1,0)	(1,0)	(1,0)	
L1D -276>	(113,1)	(4,1)	(19,7)	(0,15)	(2,4)	(-6,1)	(276,4)	(20,25)	(281,2)	(274,2)	(8,7)	(247,6)	(279,1)	(28,2)	(-1,1)	(1,6)	
L1D -275>	(275,13)	(265,2)	(8,7)	(26,6)	(256,1)	(0,17)	(-20,2)	(56,1)	(28,1)	(5,1)	(226,1)	(-5,1)	(6,9)	(18,1)	(24,4)	(1,2)	
L1D -274>	(276,2)	(12,2)	(-18,1)	(19,1)	(2,8)	(316,1)	(0,9)	(1,8)	(6,2)	(8,7)	(279,2)	(275,1)	(54,1)	(277,6)	(272,1)	(14,1)	
L1D -273>	(277,102)	(0,3)	(6,13)	(412,8)	(273,1)	(236,1)	(268,0)	(420,9)	(263,3)	(-4,0)	(2,0)	(19,0)	(419,1)	(3,1)	(-1,0)	(1,4)	
L1D -272>	(275,6)	(0,12)	(295,3)	(236,1)	(4,2)	(1,5)	(6,5)	(270,4)	(20,4)	(234,3)	(247,4)	(-122,1)	(-98,1)	(10,1)	(268,1)	(233,1)	
L1D -271>	(275,3)	(0,11)	(1,5)	(4,1)	(26,6)	(24,9)	(19,2)	(6,4)	(36,1)	(290,1)	(271,4)	(-86,1)	(268,1)	(20,1)	(226,1)	(2,2)	
L1D -270>	(4,2)	(19,7)	(26,1)	(1,7)	(0,5)	(228,2)	(273,3)	(20,14)	(276,1)	(-12,1)	(-134,1)	(254,3)	(60,1)	(268,2)	(249,1)	(244,1)	
L1D -269>	(3,85)	(-20,1)	(26,12)	(269,5)	(2,1)	(29,1)	(0,8)	(6,5)	(273,1)	(13,106)	(19,7)	(4,2)	(24,3)	(1,2)	(268,2)	(284,1)	
L1D -268>	(2,1)	(18,1)	(19,19)	(5,3)	(6,3)	(0,15)	(20,34)	(279,1)	(273,4)	(313,1)	(269,5)	(-12,4)	(1,7)	(284,2)	(266,3)	(14,2)	
L1D -267>	(19,3)	(420,71)	(6,2)	(184,1)	(412,64)	(419,5)	(411,9)	(1,1)	(265,1)	(263,30)	(24,9)	(29,1)	(20,2)	(0,13)	(271,2)	(-5,1)	
L1D -266>	(234,1)	(2,2)	(4,6)	(1,7)	(265,1)	(19,9)	(0,8)	(-12,1)	(227,4)	(264,2)	(20,3)	(238,1)	(-20,4)	(241,1)	(6,1)	(269,4)	
L1D -265>	(19,2)	(24,8)	(1,8)	(0,8)	(6,10)	(240,1)	(234,1)	(4,1)	(26,2)	(265,5)	(216,1)	(-102,1)	(350,1)	(-4,1)	(226,1)	(49,2)	
L1D -264>	(20,15)	(-150,1)	(-6,1)	(269,2)	(12,6)	(4,5)	(0,15)	(284,1)	(262,2)	(6,3)	(247,2)	(239,2)	(1,6)	(146,1)	(267,2)	(266,1)	
L1D -263>	(1,8)	(24,33)	(263,6)	(6,2)	(0,35)	(267,3)	(19,10)	(26,6)	(226,2)	(256,2)	(3,2)	(224,2)	(234,1)	(-42,1)	(17,1)	(1,0)	
L1D -262>	(6,2)	(19,3)	(0,10)	(1,5)	(254,1)	(20,23)	(289,2)	(4,3)	(-43,10)	(170,1)	(-16,1)	(-20,1)	(-1,1)	(265,3)	(267,1)	(414,1)	
L1D -261>	(265,2)	(26,46)	(10,2)	(6,9)	(260,3)	(19,8)	(261,5)	(24,15)	(0,11)	(284,1)	(13,3)	(3,1)	(1,2)	(246,1)	(-2,1)	(414,1)	
L1D -260>	(378,1)	(2,3)	(1,7)	(223,1)	(20,26)	(-149,1)	(0,10)	(19,5)	(265,6)	(262,1)	(272,1)	(6,1)	(248,2)	(60,1)	(-20,1)	(260,1)	
L1D -259>	(218,1)	(0,16)	(259,1)	(260,1)	(19,3)	(13,2)	(202,1)	(24,5)	(220,1)	(263,1)	(3,2)	(10,1)	(1,3)	(29,1)	(128,1)	(396,1)	
L1D -258>	(2,1)	(-18,1)	(289,1)	(263,2)	(14,2)	(257,1)	(-1,1)	(219,13)	(291,1)	(1,7)	(20,9)	(146,1)	(-120,1)	(0,11)	(261,4)	(186,2)	
L1D -257>	(0,51)	(98,81)	(-1,0)	(60,80)	(99,4)	(257,1)	(-6,0)	(6,1)	(4,0)	(19,0)	(228,0)	(1,0)	(24,1)	(1,0)	(1,0)	(1,0)	
L1D -256>	(251,74)	(1,89)	(0,5)	(255,8)	(28,2)	(218,2)	(239,6)	(256,2)	(6,4)	(20,14)	(19,4)	(261,1)	(-8,1)	(259,2)	(4,1)	(226,2)	
L1D -255>	(0,57)	(250,7)	(84,75)	(6,0)	(42,0)	(255,0)	(26,2)	(19,1)	(41,0)	(24,0)	(266,0)	(218,0)	(17,0)	(1,0)	(1,0)	(1,0)	
L1D -254>	(1,3)	(0,15)	(259,1)	(20,61)	(19,1)	(2,6)	(257,4)	(394,1)	(-20,4)	(278,2)	(6,3)	(218,2)	(255,2)	(233,3)	(-12,4)	(-30,1)	
L1D -253>	(0,20)	(253,10)	(6,6)	(252,2)	(3,2)	(26,2)	(24,9)	(19,5)	(2,1)	(1,4)	(4,1)	(29,1)	(146,1)	(248,1)	(-5,1)	(13,2)	
L1D -252>	(-6,3)	(272,2)	(1,9)	(20,14)	(19,8)	(284,1)	(257,6)	(0,17)	(240,2)	(-12,3)	(-20,6)	(14,1)	(2,1)	(108,1)	(4,1)	(6,1)	
L1D -251>	(1,127)	(6,0)	(255,0)	(240,0)	(3,0)	(251,9)	(0,0)	(1,0)	(1,0)	(1,0)	(1,0)	(1,0)	(1,0)	(1,0)	(1,0)	(1,0)	
L1D -250>	(0,5)	(27,6)	(84,122)	(20,10)	(284,1)	(386,1)	(257,1)	(1,4)	(277,1)	(250,20)	(19,3)	(253,3)	(6,3)	(96,1)	(-10,1)	(225,1)	
L1D -249>	(24,17)	(6,5)	(1,12)	(30,5)	(0,18)	(249,4)	(19,11)	(26,11)	(-36,5)	(2,1)	(-48,3)	(-20,2)	(208,1)	(276,1)	(318,1)	(-4,1)	
L1D -248>	(2,5)	(-18,10)	(-6,6)	(0,19)	(210,2)	(19,7)	(-37,11)	(20,39)	(4,3)	(-20,2)	(289,3)	(116,2)	(246,3)	(6,11)	(3,3)	(38,1)	
L1D -247>	(247,14)	(2,1)	(26,79)	(0,22)	(1,11)	(22,1)	(24,7)	(322,1)	(19,8)	(44,8)	(226,8)	(218,1)	(146,1)	(-90,1)	(20,2)	(-36,1)	
L1D -246>	(19,23)	(324,1)	(13,22)	(-6,7)	(6,6)	(18,1)	(2,1)	(0,13)	(20,17)	(1,8)	(285,2)	(249,4)	(225,19)	(-20,1)	(251,4)	(5,1)	
L1D -245>	(14,0)	(13,103)	(3,0)	(24,6)	(250,23)	(-6,3)	(6,0)	(19,0)	(0,1)	(29,0)	(28,0)	(243,0)	(130,0)	(245,1)	(26,1)	(42,0)	
L1D -244>	(4,2)	(-20,7)	(19,9)	(20,8)	(0,16)	(1,6)	(249,4)	(-6,1)	(2,1)	(223,1)	(6,2)	(272,1)	(246,1)	(298,1)	(245,1)	(450,1)	
L1D -243>	(6,2)	(1,2)	(3,100)	(243,2)	(13,100)	(24,5)	(0,6)	(4,10)	(2,2)	(19,2)	(390,1)	(242,3)	(204,1)	(26,0)	(36,0)	(414,0)	
L1D -242>	(2,6)	(225,1)	(265,1)	(0,7)	(247,3)	(20,16)	(5,1)	(1,8)	(19,6)	(14,2)	(245,3)	(66,1)	(216,1)	(-20,2)	(4,2)	(240,2)	
L1D -241>	(0,7)	(26,57)	(241,23)	(19,7)	(24,20)	(1,6)	(-123,1)	(4,1)	(206,1)	(352,1)	(6,2)	(-34,1)	(236,1)	(222,1)	(-4,1)	(-6,1)	
L1D -240>	(20,14)	(0,11)	(281,2)	(1,8)	(19,4)	(202,2)	(6,2)	(234,1)	(240,1)	(9,1)	(238,2)	(10,1)	(-20,2)	(2,1)	(292,1)	(254,1)	
L1D -239>	(239,49)	(244,6)	(1,1)	(274,1)	(232,1)	(26,3)	(24,3)	(-256,1)	(19,5)	(5,4)	(0,14)	(29,2)	(210,1)	(243,1)	(20,1)	(1,0)	
L1D -238>	(-6,4)	(0,12)	(12,63)	(2,4)	(3,3)	(1,4)	(20,16)	(292,1)	(202,2)	(-20,2)	(241,5)	(-12,2)	(219,1)	(6,3)	(231,1)	(416,1)	
L1D -237>	(2,2)	(6,5)	(0,24)	(20,1)	(24,3)	(222,2)	(19,3)	(237,6)	(1,4)	(17,1)	(29,2)	(270,1)	(4,2)	(244,1)	(94,1)	(3,2)	
L1D -236>	(2,4)	(6,4)	(0,10)	(-20,4)	(241,4)	(-18,3)	(8,1)	(247,2)	(4,1)	(19,5)	(20,8)	(237,1)	(274,1)	(270,1)	(277,3)	(236,2)	
L1D -235>	(2,9)	(180,2)	(16,2)	(6,1)	(24,8)	(1,7)	(235,5)	(0,18)	(239,1)	(240,1)	(140,2)	(237,1)	(204,1)	(20,1)	(374,1)	(242,2)	
L1D -234>	(237,3)	(1,6)	(268,2)	(0,11)	(-18,4)	(20,6)	(5,1)	(272,1)	(19,4)	(4,2)	(235,1)	(6,7)	(241,2)	(195,6)	(312,1)	(28,1)	
L1D -233>	(26,14)	(233,13)	(24,33)	(1,12)	(0,22)	(240,1)	(229,2)	(227,7)	(3,4)	(4,1)	(6,4)	(35,1)	(272,1)	(200,1)	(12,1)	(354,1)	
L1D -232>	(-20,8)	(2,2)	(271,1)	(1,3)	(0,18)	(-12,5)	(20,13)	(238,1)	(239,5)	(281,2)	(3,2)	(276,1)	(233,13)	(19,5)	(202,1)	(-114,1)	
L1D -231>	(0,24)	(19,4)	(24,5)	(2,2)	(231,5)	(-20,1)	(224,2)	(396,1)	(20,1)	(1,1)	(202,1)	(38,1)	(6,1)	(328,1)	(1,0)	(1,0)	
L1D -230>	(0,14)	(1,5)	(-144,1)	(-6,1)	(2,5)	(229,6)	(-20,5)	(-18,2)	(328,1)	(20,20)	(253,1)	(460,1)	(146,2)	(14,1)	(3,1)	(-44,1)	
L1D -229>	(3,1)	(26,11)	(1,5)	(0,76)	(2,3)	(-9,43)	(6,4)	(228,1)	(374,13)	(229,4)	(-152,2)	(-20,1)	(24,8)	(19,1)	(236,2)	(5,1)	
L1D -228>	(234,4)	(-20,11)	(235,8)	(0,21)	(261,1)	(277,1)	(1,3)	(233,4)	(6,7)	(19,3)	(4,1)	(-155,3)	(146,1)	(223,4)	(269,5)	(-153,2)	
L1D -227>	(0,23)	(5,2)	(227,14)	(1,6)	(6,2)	(258,1)	(26,3)	(-20,1)	(188,12)	(19,3)	(13,1)	(24,2)	(304,1)	(234,1)	(4,1)	(20,1)	
L1D -226>	(50,1)	(0,10)	(-3,113)	(6,4)	(187,35)	(414,1)	(-20,0)	(233,2)	(207,0)	(20,6)	(-138,0)	(229,0)	(1,2)	(2,1)	(1,0)	(1,0)	
L1D -225>	(26,7)	(225,63)	(0,10)	(24,34)	(19,7)	(1,8)	(224,1)	(-20,4)	(222,2)	(221,2)	(191,1)	(5,1)	(6,1)	(308,1)	(-128,1)	(4,2)	
L1D -224>	(19,14)	(231,1)	(20,17)	(0,16)	(1,4)	(267,1)	(-20,7)	(272,1)	(224,7)	(28,2)	(-4,7)	(260,1)	(-73,1)	(230,1)	(-2,1)	(207,3)	
L1D -223>	(223,15)	(0,16)	(292,1)	(191,2)	(19,13)	(2,1)	(57,1)	(-20,9)	(12,1)	(406,1)	(14,1)	(1,4)	(188,1)	(-2,1)	(36,1)	(-27,2)	
L1D -222>	(6,2)	(-20,13)	(0,9)	(1,6)	(20,21)	(4,2)	(256,1)	(2,5)	(267,2)	(-25,1)	(280,1)	(186,1)	(-6,2)	(253,1)	(273,1)	(-126,1)	
L1D -221>	(6,5)	(2,7)	(221,17)	(3,2)	(248,1)	(225,1)	(228,1)	(0,11)	(5,10)	(1,6)	(-20,2)	(414,1)	(29,2)	(322,2)	(20,1)	(208,1)	
L1D -220>	(19,1)	(-6,3)	(20,1)	(1,5)	(225,3)	(221,2)	(0,18)	(16,1)	(278,1)	(227,9)	(219,1)	(-20,5)	(253,5)	(5,1)	(4,1)	(28,5)	
L1D -219>	(6,5)	(3,6)	(219,51)	(0,24)	(14,1)	(19,4)	(1,4)	(-90,1)	(224,2)	(13,6)	(226,1)	(434,2)	(-5,1)	(246,1)	(-20,3)	(20,3)	
L1D -218>	(-18,2)	(0,14)	(4,3)	(20,26)	(272,1)	(19,15)	(117,3)	(1,12)	(-120,1)	(-30,1)	(-72,1)	(-20,4)	(221,1)	(245,3)	(246,1)	(6,2)	
L1D -217>	(26,12)	(54,1)	(19,37)	(10,1)	(217,3)	(24,4)	(212,2)	(2,1)	(224,2)	(0,10)	(-20,3)	(6,1)	(-6,1)	(29,3)	(172,1)	(246,3)	
L1D -216>	(216,6)	(20,98)	(2,8)	(0,22)	(-6,1)	(1,4)	(-18,3)	(-20,7)	(6,2)	(223,9)	(4,2)	(28,2)	(27,2)	(-80,1)	(19,1)	(257,1)	
L1D -215>	(5,9)	(0,30)	(2,3)	(215,3)	(24,3)	(-2,1)	(159,1)	(-20,1)	(217,1)	(20,1)	(3,1)	(-39,1)	(316,5)	(7,1)	(1,1)	(214,1)	
L1D -214>	(1,5)	(-20,1)	(-12,1)	(3,6)	(0,23)	(427,1)	(253,3)	(-6,2)	(-2,1)	(214,1)	(20,3)	(24,1)	(240,1)	(221,5)	(140,1)	(-16,1)	
L1D -213>	(0,39)	(217,1)	(213,9)	(220,1)	(214,2)	(19,2)	(1,3)	(4,2)	(29,1)	(211,1)	(5,1)	(242,1)	(358,1)	(24,1)	(1,0)	(1,0)	
L1D -212>	(-6,4)	(0,20)	(245,2)	(253,8)	(214,1)	(-2,1)	(219,10)	(3,5)	(257,1)	(20,2)	(-20,5)	(1,6)	(249,1)	(256,1)	(240,2)	(-108,1)	
L1D -211>	(211,35)	(1,3)	(215,1)	(5,8)	(6,8)	(24,1)	(2,1)	(212,4)	(14,1)	(-5,1)	(216,1)	(0,51)	(179,2)	(20,2)	(29,2)	(-1,1)	
L1D -210>	(0,45)	(4,1)	(-11,1)	(182,1)	(1,10)	(-12,1)	(3,2)	(502,1)	(6,1)	(213,1)	(-14,1)	(216,1)	(-18,2)	(-276,1)	(104,1)	(-254,1)	
L1D -209>	(26,70)	(0,9)	(6,1)	(236,0)	(24,4)	(1,1)	(209,1)	(29,2)	(216,1)	(329,0)	(-182,0)	(-1,0)	(4,0)	(-128,0)	(-20,0)	(1,0)	
L1D -208>	(1,7)	(19,3)	(24,1)	(0,15)	(6,2)	(213,2)	(20,3)	(-20,3)	(376,1)	(208,1)	(-1,2)	(412,1)	(182,1)	(-152,1)	(186,1)	(1,0)	
L1D -207>	(207,14)	(5,1)	(209,4)	(0,15)	(174,1)	(19,4)	(6,4)	(211,2)	(196,1)	(2,3)	(26,1)	(1,2)	(3,1)	(20,1)	(-1,1)	(24,1)	
L1D -206>	(0,123)	(4,0)	(272,0)	(2,0)	(20,0)	(204,0)	(206,0)	(1,2)	(1,0)	(1,0)	(1,0)	(1,0)	(1,0)	(1,0)	(1,0)	(1,0)	
L1D -205>	(0,118)	(204,1)	(6,1)	(234,0)	(-20,0)	(1,0)	(1,0)	(1,0)	(1,0)	(1,0)	(1,0)	(1,0)	(1,0)	(1,0)	(1,0)	(1,0)	
L1D -204>	(203,1)	(0,39)	(186,1)	(184,1)	(280,1)	(233,7)	(209,3)	(211,12)	(-117,2)	(-18,3)	(235,1)	(241,4)	(248,1)	(-20,4)	(1,5)	(204,4)	
L1D -203>	(0,45)	(203,25)	(272,1)	(1,2)	(-152,1)	(-5,1)	(202,2)	(-6,1)	(24,2)	(6,1)	(-12,1)	(2,1)	(464,1)	(210,1)	(37,1)	(207,1)	
L1D -202>	(0,26)	(464,1)	(-159,1)	(117,3)	(-102,1)	(264,1)	(1,3)	(-6,1)	(209,1)	(-124,1)	(18,2)	(-12,2)	(6,4)	(202,1)	(243,1)	(24,1)	
L1D -201>	(0,27)	(201,4)	(414,1)	(29,1)	(17,1)	(3,1)	(1,3)	(318,1)	(384,1)	(10,1)	(-20,1)	(208,1)	(256,1)	(1,0)	(1,0)	(1,0)	
L1D -200>	(-2,4)	(-18,1)	(0,46)	(200,4)	(3,7)	(1,3)	(24,3)	(6,2)	(-4,1)	(198,1)	(364,1)	(324,1)	(207,2)	(-210,1)	(84,1)	(34,1)	
L1D -199>	(0,52)	(91,1)	(-2,1)	(227,1)	(2,1)	(4,1)	(18,1)	(-128,1)	(232,1)	(1,0)	(1,0)	(1,0)	(1,0)	(1,0)	(1,0)	(1,0)	
L1D -198>	(-18,6)	(0,25)	(1,7)	(188,4)	(120,1)	(6,3)	(402,1)	(-282,1)	(205,1)	(224,1)	(237,1)	(257,1)	(201,2)	(1,0)	(1,0)	(1,0)	
L1D -197>	(0,40)	(3,10)	(-6,1)	(6,1)	(1,3)	(280,1)	(13,6)	(-1,1)	(-56,1)	(14,1)	(2,1)	(24,1)	(126,1)	(1,0)	(1,0)	(1,0)	
L1D -196>	(-6,4)	(0,35)	(1,4)	(-18,5)	(225,1)	(237,3)	(4,4)	(-14,4)	(219,1)	(-20,1)	(-28,1)	(-137,1)	(198,1)	(-138,1)	(203,1)	(356,1)	
L1D -195>	(0,38)	(1,5)	(195,7)	(-20,4)	(342,1)	(252,1)	(194,1)	(225,1)	(20,1)	(130,1)	(-1,1)	(1,0)	(1,0)	(1,0)	(1,0)	(1,0)	
L1D -194>	(0,36)	(1,4)	(229,3)	(6,1)	(194,1)	(190,1)	(207,1)	(197,2)	(245,1)	(191,1)	(2,1)	(254,1)	(80,1)	(-12,2)	(68,1)	(1,0)	
L1D -193>	(0,31)	(1,6)	(338,1)	(-6,1)	(193,3)	(24,1)	(146,1)	(216,1)	(226,1)	(276,1)	(160,1)	(268,1)	(122,1)	(1,0)	(1,0)	(1,0)	
L1D -192>	(0,33)	(422,1)	(1,4)	(12,3)	(-44,1)	(-100,1)	(6,3)	(117,2)	(162,1)	(-28,1)	(146,1)	(-18,1)	(102,1)	(192,1)	(-4,1)	(-68,1)	
L1D -191>	(0,34)	(172,1)	(6,4)	(-20,1)	(210,1)	(2,1)	(124,1)	(36,1)	(1,6)	(4,1)	(-128,1)	(-124,1)	(191,1)	(1,0)	(1,0)	(1,0)	
L1D -190>	(0,20)	(245,1)	(412,1)	(-20,1)	(462,1)	(1,3)	(270,1)	(28,1)	(122,1)	(146,1)	(191,1)	(193,1)	(-298,1)	(-28,1)	(-228,1)	(1,0)	
L1D -189>	(0,25)	(6,6)	(5,1)	(1,6)	(-20,1)	(234,1)	(3,1)	(216,1)	(212,3)	(191,1)	(188,1)	(184,1)	(24,1)	(1,0)	(1,0)	(1,0)	
L1D -188>	(0,20)	(211,8)	(-20,5)	(28,3)	(1,5)	(233,2)	(236,1)	(414,1)	(195,2)	(263,1)	(243,1)	(198,1)	(186,1)	(231,1)	(48,1)	(-18,2)	
L1D -187>	(187,102)	(0,22)	(-20,1)	(148,2)	(-18,1)	(1,5)	(20,3)	(122,1)	(272,1)	(6,1)	(100,1)	(1,0)	(1,0)	(1,0)	(1,0)	(1,0)	
L1D -186>	(0,17)	(1,7)	(2,1)	(6,1)	(220,1)	(252,1)	(24,1)	(240,1)	(-18,1)	(390,1)	(1,0)	(1,0)	(1,0)	(1,0)	(1,0)	(1,0)	
L1D -185>	(0,22)	(1,3)	(6,1)	(194,1)	(60,1)	(212,1)	(186,1)	(4,1)	(12,1)	(1,0)	(1,0)	(1,0)	(1,0)	(1,0)	(1,0)	(1,0)	
L1D -184>	(0,16)	(17,1)	(28,5)	(204,1)	(24,4)	(6,2)	(1,5)	(146,7)	(156,1)	(232,1)	(-18,1)	(20,1)	(184,1)	(1,0)	(1,0)	(1,0)	
L1D -183>	(0,38)	(2,18)	(1,4)	(207,1)	(5,1)	(20,2)	(-86,1)	(-9,2)	(16,1)	(4,1)	(-122,1)	(1,0)	(1,0)	(1,0)	(1,0)	(1,0)	
L1D -182>	(-11,1)	(146,2)	(0,27)	(1,8)	(163,5)	(278,1)	(-18,3)	(-44,1)	(-12,1)	(-104,1)	(185,1)	(-1,1)	(-78,1)	(-192,1)	(1,0)	(1,0)	
L1D -181>	(0,24)	(1,4)	(142,2)	(78,1)	(-1,2)	(5,3)	(181,1)	(24,1)	(4,1)	(27,1)	(1,0)	(1,0)	(1,0)	(1,0)	(1,0)	(1,0)	
L1D -180>	(1,3)	(180,1)	(34,18)	(0,23)	(50,43)	(-28,1)	(-11,1)	(304,1)	(-3,3)	(374,1)	(48,1)	(-276,1)	(17,1)	(-18,3)	(24,1)	(-4,1)	
L1D -179>	(0,25)	(34,25)	(1,11)	(-116,1)	(66,1)	(179,1)	(2,1)	(1,0)	(1,0)	(1,0)	(1,0)	(1,0)	(1,0)	(1,0)	(1,0)	(1,0)	
L1D -178>	(0,18)	(1,8)	(238,1)	(-58,1)	(344,1)	(184,1)	(440,1)	(-1,1)	(119,1)	(18,1)	(1,0)	(1,0)	(1,0)	(1,0)	(1,0)	(1,0)	
L1D -177>	(171,71)	(0,7)	(1,5)	(177,2)	(3,6)	(-120,0)	(138,0)	(-137,0)	(-19,0)	(1,0)	(1,0)	(1,0)	(1,0)	(1,0)	(1,0)	(1,0)	
L1D -176>	(177,58)	(0,20)	(-1,1)	(1,11)	(2,2)	(-18,1)	(182,1)	(170,1)	(83,1)	(218,1)	(174,1)	(-24,1)	(-2,1)	(367,1)	(1,0)	(1,0)	
L1D -175>	(0,47)	(170,126)	(1,14)	(175,2)	(6,6)	(171,12)	(-168,2)	(3,1)	(136,5)	(4,1)	(-178,1)	(13,1)	(150,1)	(1,0)	(1,0)	(1,0)	
L1D -174>	(53,0)	(28,15)	(-3,90)	(168,96)	(338,53)	(0,13)	(50,26)	(5,0)	(177,0)	(1,0)	(1,0)	(1,0)	(1,0)	(1,0)	(1,0)	(1,0)	
L1D -173>	(-1,9)	(167,10)	(0,3)	(28,115)	(172,0)	(6,0)	(-9,0)	(173,0)	(1,1)	(1,0)	(1,0)	(1,0)	(1,0)	(1,0)	(1,0)	(1,0)	
L1D -172>	(167,24)	(171,28)	(173,90)	(178,22)	(400,1)	(1,8)	(0,40)	(172,2)	(6,1)	(-170,1)	(280,1)	(-6,1)	(170,1)	(-126,1)	(312,1)	(-16,1)	
L1D -171>	(172,2)	(170,1)	(171,83)	(176,5)	(1,3)	(132,0)	(0,12)	(166,2)	(-1,0)	(6,5)	(167,1)	(346,8)	(173,2)	(177,58)	(3,4)	(90,32)	
L1D -170>	(33,23)	(0,5)	(175,19)	(-167,84)	(6,37)	(176,1)	(-168,15)	(170,4)	(-1,0)	(-218,0)	(1,1)	(1,0)	(1,0)	(1,0)	(1,0)	(1,0)	
L1D -169>	(1,18)	(-3,19)	(170,42)	(169,69)	(-6,77)	(6,1)	(168,1)	(343,2)	(0,32)	(164,2)	(-20,1)	(2,1)	(27,5)	(5,3)	(24,1)	(-1,1)	
L1D -168>	(1,9)	(-3,104)	(100,1)	(0,1)	(168,12)	(-4,3)	(338,7)	(176,1)	(343,71)	(87,35)	(106,0)	(2,1)	(95,0)	(115,0)	(169,0)	(1,0)	
L1D -167>	(86,92)	(-4,126)	(-1,18)	(1,14)	(0,3)	(342,79)	(172,1)	(167,7)	(173,1)	(168,1)	(114,14)	(99,0)	(1,0)	(1,0)	(1,0)	(1,0)	
L1D -166>	(2,1)	(-4,76)	(1,1)	(0,6)	(166,1)	(254,1)	(169,0)	(4,0)	(6,0)	(1,0)	(1,0)	(1,0)	(1,0)	(1,0)	(1,0)	(1,0)	
L1D -165>	(164,34)	(-6,4)	(0,24)	(165,2)	(166,3)	(382,1)	(1,4)	(-62,1)	(240,1)	(24,1)	(-1,1)	(1,0)	(1,0)	(1,0)	(1,0)	(1,0)	
L1D -164>	(0,10)	(-174,30)	(164,122)	(-6,58)	(1,7)	(-66,1)	(396,1)	(169,1)	(392,1)	(5,1)	(1,0)	(1,0)	(1,0)	(1,0)	(1,0)	(1,0)	
L1D -163>	(27,6)	(0,7)	(163,7)	(1,6)	(24,1)	(3,1)	(376,1)	(124,2)	(6,3)	(164,2)	(270,1)	(-94,1)	(4,1)	(5,1)	(1,0)	(1,0)	
L1D -162>	(162,6)	(1,7)	(163,4)	(-74,1)	(0,5)	(109,1)	(378,1)	(85,2)	(152,1)	(60,1)	(238,1)	(4,1)	(1,0)	(1,0)	(1,0)	(1,0)	
L1D -161>	(0,13)	(19,1)	(-14,72)	(-6,0)	(2,2)	(162,1)	(6,1)	(-242,0)	(128,1)	(1,1)	(-8,1)	(24,0)	(161,2)	(5,0)	(334,0)	(13,0)	
L1D -160>	(2,1)	(0,6)	(1,2)	(161,3)	(5,2)	(34,1)	(160,2)	(100,1)	(-1,1)	(178,1)	(-28,1)	(-282,1)	(-159,1)	(140,1)	(3,1)	(46,1)	
L1D -159>	(-99,111)	(-64,0)	(120,0)	(0,0)	(-98,1)	(1,0)	(1,0)	(1,0)	(1,0)	(1,0)	(1,0)	(1,0)	(1,0)	(1,0)	(1,0)	(1,0)	
L1D -158>	(1,7)	(-46,42)	(159,4)	(0,15)	(144,1)	(158,8)	(6,3)	(-244,1)	(-3,2)	(-210,1)	(394,1)	(112,1)	(91,2)	(-78,1)	(156,1)	(85,1)	
L1D -157>	(158,2)	(157,8)	(1,3)	(3,66)	(13,80)	(0,4)	(2,4)	(124,1)	(4,3)	(159,0)	(24,0)	(-39,0)	(1,0)	(1,0)	(1,0)	(1,0)	
L1D -156>	(156,6)	(0,8)	(3,4)	(13,10)	(157,7)	(2,1)	(89,2)	(85,3)	(-4,2)	(52,2)	(152,1)	(304,1)	(6,2)	(1,4)	(228,1)	(78,1)	
L1D -155>	(155,14)	(1,13)	(2,13)	(52,7)	(6,1)	(0,5)	(116,2)	(-137,3)	(-154,1)	(387,1)	(1,0)	(1,0)	(1,0)	(1,0)	(1,0)	(1,0)	
L1D -154>	(154,3)	(0,11)	(1,8)	(155,9)	(10,2)	(335,1)	(51,1)	(24,1)	(139,1)	(206,1)	(376,1)	(82,1)	(374,1)	(298,1)	(1,0)	(1,0)	
L1D -153>	(2,7)	(1,6)	(0,6)	(154,3)	(6,2)	(3,1)	(12,24)	(98,1)	(153,3)	(326,1)	(127,1)	(5,2)	(13,1)	(1,0)	(1,0)	(1,0)	
L1D -152>	(1,8)	(153,5)	(99,2)	(0,9)	(85,2)	(32,1)	(346,1)	(152,2)	(322,1)	(-48,1)	(-94,1)	(12,4)	(-272,1)	(5,1)	(1,0)	(1,0)	
L1D -151>	(6,1)	(5,2)	(0,5)	(1,8)	(152,5)	(2,2)	(12,1)	(-13,2)	(151,2)	(118,1)	(1,0)	(1,0)	(1,0)	(1,0)	(1,0)	(1,0)	
L1D -150>	(56,2)	(0,8)	(151,3)	(150,6)	(83,1)	(149,1)	(144,1)	(1,3)	(188,1)	(5,1)	(153,2)	(178,1)	(77,1)	(-98,1)	(160,1)	(-114,1)	
L1D -149>	(1,2)	(276,1)	(3,62)	(-10,1)	(27,1)	(0,3)	(13,75)	(150,1)	(4,3)	(149,4)	(-328,1)	(-137,0)	(24,1)	(-214,0)	(122,0)	(6,0)	
L1D -148>	(148,7)	(151,1)	(0,7)	(4,1)	(3,15)	(13,15)	(149,3)	(1,3)	(71,1)	(20,1)	(102,1)	(-197,1)	(-1,1)	(1,0)	(1,0)	(1,0)	
L1D -147>	(0,1)	(141,77)	(30,1)	(147,0)	(13,0)	(-33,29)	(17,2)	(-135,0)	(1,1)	(34,0)	(1,0)	(1,0)	(1,0)	(1,0)	(1,0)	(1,0)	
L1D -146>	(5,1)	(2,33)	(146,1)	(-33,17)	(9,127)	(0,1)	(1,3)	(-158,0)	(142,0)	(-14,1)	(-8,0)	(64,0)	(4,0)	(-172,0)	(1,0)	(1,0)	
L1D -145>	(2,3)	(1,14)	(12,36)	(146,5)	(-8,3)	(5,20)	(145,12)	(-14,20)	(-2,1)	(0,3)	(346,1)	(356,1)	(106,1)	(190,1)	(147,1)	(1,0)	
L1D -144>	(0,74)	(7,74)	(-26,21)	(20,1)	(12,3)	(85,1)	(1,2)	(145,0)	(166,0)	(-10,1)	(-9,1)	(125,1)	(239,0)	(28,0)	(144,1)	(1,0)	
L1D -143>	(0,18)	(19,3)	(124,3)	(123,1)	(143,5)	(1,5)	(144,6)	(-137,1)	(27,3)	(331,2)	(-184,1)	(178,1)	(280,1)	(-222,1)	(-206,1)	(-7,1)	
L1D -142>	(0,13)	(5,9)	(123,1)	(1,5)	(142,8)	(143,2)	(-10,2)	(2,1)	(82,1)	(61,1)	(220,1)	(54,1)	(394,1)	(60,1)	(70,1)	(145,1)	
L1D -141>	(141,6)	(1,5)	(-3,45)	(0,4)	(140,1)	(108,1)	(38,1)	(142,3)	(502,1)	(-2,1)	(6,1)	(5,1)	(-160,1)	(1,0)	(1,0)	(1,0)	
L1D -140>	(0,15)	(146,1)	(1,6)	(61,2)	(140,7)	(-3,4)	(28,1)	(60,2)	(238,1)	(-2,1)	(141,2)	(-137,1)	(182,1)	(-30,1)	(1,0)	(1,0)	
L1D -139>	(1,9)	(100,2)	(0,5)	(-126,1)	(19,26)	(139,2)	(3,6)	(140,2)	(112,1)	(414,1)	(376,1)	(-1,1)	(13,1)	(-238,1)	(-137,1)	(-38,1)	
L1D -138>	(1,7)	(138,8)	(158,1)	(0,8)	(136,1)	(144,1)	(344,1)	(280,1)	(2,1)	(139,1)	(5,1)	(386,1)	(1,0)	(1,0)	(1,0)	(1,0)	
L1D -137>	(0,4)	(-7,75)	(5,0)	(4,0)	(13,0)	(176,0)	(6,0)	(1,0)	(1,0)	(1,0)	(1,0)	(1,0)	(1,0)	(1,0)	(1,0)	(1,0)	
L1D -136>	(0,120)	(1,3)	(-137,1)	(136,1)	(-314,1)	(-9,1)	(394,0)	(137,3)	(-4,0)	(1,0)	(1,0)	(1,0)	(1,0)	(1,0)	(1,0)	(1,0)	
L1D -135>	(0,38)	(136,3)	(2,1)	(135,8)	(1,6)	(-1,2)	(-2,1)	(-222,1)	(6,1)	(7,6)	(-9,2)	(-34,1)	(24,1)	(10,1)	(134,1)	(102,1)	
L1D -134>	(135,9)	(5,3)	(0,12)	(1,10)	(61,1)	(-175,1)	(-1,3)	(198,1)	(134,4)	(122,1)	(6,1)	(342,1)	(190,1)	(114,2)	(139,1)	(137,1)	
L1D -133>	(1,6)	(0,6)	(133,6)	(-3,50)	(24,1)	(-6,1)	(6,1)	(372,1)	(-12,1)	(18,1)	(20,1)	(229,1)	(302,1)	(134,8)	(2,1)	(-256,1)	
L1D -132>	(6,77)	(332,0)	(0,1)	(5,0)	(33,3)	(179,23)	(132,1)	(-3,0)	(2,0)	(133,0)	(296,0)	(1,1)	(1,0)	(1,0)	(1,0)	(1,0)	
L1D -131>	(6,11)	(166,1)	(1,3)	(131,6)	(24,3)	(132,3)	(30,1)	(179,3)	(-1,1)	(-128,1)	(0,4)	(2,1)	(33,1)	(89,1)	(70,1)	(1,0)	
L1D -130>	(0,5)	(1,26)	(-320,1)	(-129,1)	(21,10)	(-137,1)	(426,1)	(131,4)	(5,2)	(304,1)	(-1,1)	(76,1)	(130,5)	(2,2)	(-128,1)	(128,1)	
L1D -129>	(1,4)	(0,11)	(96,1)	(129,7)	(6,1)	(3,2)	(-2,1)	(-1,1)	(130,4)	(-184,1)	(384,1)	(346,1)	(1,0)	(1,0)	(1,0)	(1,0)	
L1D -128>	(-2,5)	(6,23)	(96,1)	(0,14)	(412,1)	(129,4)	(179,11)	(51,1)	(1,2)	(-88,1)	(33,1)	(2,4)	(-166,1)	(8,1)	(1,0)	(1,0)	
L1D -127>	(0,7)	(127,9)	(13,1)	(55,1)	(1,3)	(386,1)	(6,1)	(117,1)	(372,1)	(-126,1)	(128,1)	(40,1)	(1,0)	(1,0)	(1,0)	(1,0)	
L1D -126>	(1,6)	(173,13)	(226,1)	(0,14)	(412,1)	(336,1)	(4,1)	(-2,1)	(59,1)	(-162,1)	(-10,1)	(126,3)	(107,1)	(127,6)	(34,1)	(6,8)	
L1D -125>	(1,4)	(125,11)	(0,6)	(126,3)	(5,8)	(-348,2)	(3,2)	(-13,1)	(-228,1)	(8,1)	(-214,1)	(1,0)	(1,0)	(1,0)	(1,0)	(1,0)	
L1D -124>	(21,80)	(125,3)	(1,8)	(124,11)	(240,1)	(204,1)	(6,1)	(252,1)	(-10,3)	(0,13)	(58,1)	(380,1)	(238,1)	(258,1)	(222,1)	(184,1)	
L1D -123>	(105,99)	(5,1)	(123,2)	(0,3)	(414,0)	(3,0)	(124,1)	(1,2)	(134,0)	(-103,0)	(206,0)	(1,0)	(1,0)	(1,0)	(1,0)	(1,0)	
L1D -122>	(123,0)	(117,64)	(2,0)	(0,0)	(6,0)	(122,0)	(1,1)	(5,0)	(1,0)	(1,0)	(1,0)	(1,0)	(1,0)	(1,0)	(1,0)	(1,0)	
L1D -121>	(0,4)	(1,3)	(2,2)	(122,5)	(-35,1)	(156,2)	(11,7)	(121,5)	(6,1)	(144,2)	(3,1)	(256,1)	(124,1)	(1,0)	(1,0)	(1,0)	
L1D -120>	(5,1)	(103,93)	(120,5)	(150,0)	(1,2)	(0,2)	(6,0)	(53,0)	(212,0)	(30,0)	(-259,0)	(1,0)	(1,0)	(1,0)	(1,0)	(1,0)	
L1D -119>	(1,4)	(0,4)	(119,2)	(46,1)	(120,2)	(6,6)	(9,1)	(-103,1)	(2,1)	(-220,1)	(104,1)	(-16,1)	(5,1)	(3,1)	(-72,1)	(1,0)	
L1D -118>	(121,1)	(-4,1)	(1,4)	(412,1)	(61,1)	(118,9)	(206,1)	(-205,1)	(0,8)	(63,1)	(356,1)	(72,1)	(119,4)	(5,1)	(58,1)	(164,1)	
L1D -117>	(82,68)	(71,36)	(-5,20)	(116,1)	(1,2)	(117,8)	(-288,0)	(2,1)	(-360,0)	(-60,0)	(118,2)	(-1,0)	(51,0)	(-18,0)	(5,2)	(0,2)	
L1D -116>	(-7,20)	(1,3)	(-244,1)	(81,72)	(116,8)	(0,6)	(117,2)	(100,0)	(398,0)	(321,0)	(5,0)	(49,0)	(380,0)	(-178,0)	(6,0)	(-115,0)	
L1D -115>	(80,100)	(1,11)	(-44,1)	(-5,23)	(115,10)	(61,1)	(0,6)	(53,8)	(98,15)	(112,2)	(3,7)	(-17,1)	(-2,3)	(47,1)	(69,14)	(114,2)	
L1D -114>	(218,1)	(102,1)	(5,4)	(114,11)	(0,11)	(1,5)	(62,1)	(24,1)	(140,1)	(115,8)	(250,1)	(-36,1)	(-253,1)	(79,1)	(6,3)	(-103,1)	
L1D -113>	(1,9)	(0,8)	(78,38)	(51,5)	(113,5)	(67,3)	(17,1)	(-82,1)	(3,1)	(114,4)	(90,1)	(-9,3)	(-56,1)	(68,1)	(112,1)	(132,1)	
L1D -112>	(-137,1)	(-4,9)	(112,11)	(86,30)	(1,6)	(0,11)	(113,6)	(452,1)	(61,1)	(-60,1)	(2,1)	(3,1)	(418,1)	(-1,1)	(1,0)	(1,0)	
L1D -111>	(45,68)	(1,8)	(93,69)	(0,5)	(5,3)	(38,1)	(6,6)	(150,1)	(202,1)	(24,3)	(-184,1)	(112,2)	(142,2)	(111,4)	(50,1)	(338,1)	
L1D -110>	(112,0)	(9,1)	(110,0)	(111,1)	(64,0)	(0,76)	(78,8)	(6,0)	(1,0)	(1,0)	(1,0)	(1,0)	(1,0)	(1,0)	(1,0)	(1,0)	
L1D -109>	(110,4)	(0,64)	(5,6)	(1,7)	(382,1)	(-214,1)	(450,1)	(-38,1)	(78,7)	(-42,1)	(-230,1)	(148,1)	(109,5)	(7,12)	(24,1)	(501,1)	
L1D -108>	(2,0)	(108,0)	(0,17)	(78,113)	(-10,65)	(107,4)	(-6,5)	(60,0)	(-1,0)	(-158,0)	(500,0)	(5,0)	(1,1)	(1,0)	(1,0)	(1,0)	
L1D -107>	(0,5)	(107,36)	(1,4)	(108,9)	(6,4)	(24,2)	(-82,1)	(-2,1)	(-54,1)	(5,2)	(-228,1)	(8,1)	(100,1)	(16,1)	(156,1)	(3,1)	
L1D -106>	(0,4)	(117,68)	(1,3)	(105,1)	(86,0)	(24,0)	(107,4)	(106,13)	(-76,0)	(6,1)	(-120,0)	(156,0)	(-172,0)	(146,0)	(84,0)	(2,0)	
L1D -105>	(0,95)	(-4,23)	(86,5)	(-2,1)	(3,1)	(106,24)	(54,0)	(1,0)	(1,0)	(1,0)	(1,0)	(1,0)	(1,0)	(1,0)	(1,0)	(1,0)	
L1D -104>	(103,7)	(3,1)	(-52,64)	(-102,5)	(104,10)	(0,2)	(105,1)	(1,0)	(92,0)	(336,0)	(-2,1)	(52,0)	(-103,0)	(2,0)	(-104,0)	(-4,0)	
L1D -103>	(103,83)	(-1,1)	(-52,38)	(-102,3)	(60,31)	(200,0)	(104,61)	(4,0)	(7,4)	(0,6)	(142,0)	(1,0)	(1,0)	(1,0)	(1,0)	(1,0)	
L1D -102>	(0,79)	(103,15)	(1,10)	(2,2)	(102,17)	(390,1)	(5,1)	(-76,2)	(6,3)	(121,1)	(24,1)	(30,1)	(-101,1)	(108,1)	(15,1)	(-270,1)	
L1D -101>	(102,15)	(28,1)	(101,18)	(1,2)	(-103,1)	(-205,1)	(13,5)	(3,1)	(0,6)	(180,1)	(17,1)	(146,1)	(98,6)	(140,1)	(158,1)	(-137,2)	
L1D -100>	(100,41)	(0,6)	(99,5)	(2,2)	(101,26)	(1,5)	(236,1)	(272,1)	(-182,1)	(3,1)	(16,1)	(-272,1)	(6,1)	(106,1)	(-118,1)	(238,1)	
L1D -99>	(0,3)	(99,14)	(60,71)	(53,3)	(98,0)	(62,78)	(24,10)	(152,0)	(1,0)	(1,0)	(1,0)	(1,0)	(1,0)	(1,0)	(1,0)	(1,0)	
L1D -98>	(-330,0)	(0,62)	(78,116)	(98,95)	(97,18)	(60,84)	(5,0)	(-1,1)	(99,2)	(24,1)	(111,1)	(1,0)	(1,0)	(1,0)	(1,0)	(1,0)	
L1D -97>	(98,108)	(1,2)	(0,2)	(97,12)	(-174,0)	(-206,0)	(4,0)	(-96,0)	(96,0)	(1,0)	(1,0)	(1,0)	(1,0)	(1,0)	(1,0)	(1,0)	
L1D -96>	(97,15)	(292,1)	(96,21)	(1,15)	(85,2)	(107,49)	(-9,111)	(2,4)	(111,5)	(445,1)	(98,9)	(-28,11)	(0,6)	(95,2)	(-1,7)	(288,1)	
L1D -95>	(1,18)	(95,18)	(24,38)	(0,7)	(96,8)	(485,1)	(285,1)	(2,6)	(8,3)	(5,6)	(483,1)	(-5,1)	(480,1)	(140,1)	(489,1)	(-94,1)	
L1D -94>	(94,11)	(95,11)	(1,9)	(0,8)	(328,1)	(-172,1)	(93,1)	(75,1)	(2,2)	(13,2)	(200,1)	(-314,1)	(5,1)	(468,1)	(6,1)	(62,1)	
L1D -93>	(107,8)	(-8,122)	(93,3)	(0,1)	(146,1)	(124,1)	(128,0)	(5,0)	(132,1)	(24,2)	(4,0)	(1,1)	(1,0)	(1,0)	(1,0)	(1,0)	
L1D -92>	(-9,82)	(107,10)	(97,2)	(86,4)	(-330,0)	(228,0)	(92,2)	(28,0)	(93,0)	(0,0)	(116,0)	(-312,0)	(-318,0)	(-1,0)	(1,0)	(-4,1)	
L1D -91>	(122,0)	(0,0)	(96,74)	(175,11)	(91,1)	(92,0)	(-48,0)	(-90,0)	(1,0)	(1,0)	(1,0)	(1,0)	(1,0)	(1,0)	(1,0)	(1,0)	
L1D -90>	(1,4)	(0,15)	(91,90)	(5,0)	(90,2)	(97,0)	(96,1)	(4,0)	(92,0)	(28,0)	(2,0)	(412,0)	(1,0)	(1,0)	(1,0)	(1,0)	
L1D -89>	(0,18)	(1,9)	(98,3)	(90,8)	(113,4)	(89,17)	(-88,1)	(122,1)	(24,1)	(97,1)	(2,1)	(-1,2)	(1,0)	(1,0)	(1,0)	(1,0)	
L1D -88>	(479,1)	(6,115)	(1,4)	(89,1)	(88,2)	(354,1)	(478,1)	(7,4)	(5,0)	(0,1)	(26,34)	(9,2)	(3,0)	(232,0)	(1,0)	(1,0)	
L1D -87>	(87,1)	(98,91)	(-126,0)	(-222,0)	(0,54)	(292,0)	(88,0)	(140,0)	(2,0)	(284,0)	(1,0)	(161,0)	(1,0)	(1,0)	(1,0)	(1,0)	
L1D -86>	(87,55)	(-4,10)	(0,9)	(256,1)	(85,8)	(4,1)	(2,2)	(86,9)	(1,13)	(-178,1)	(28,2)	(99,1)	(414,1)	(67,5)	(154,1)	(-26,1)	
L1D -85>	(92,70)	(107,7)	(72,5)	(45,1)	(90,2)	(85,1)	(-8,36)	(86,1)	(-202,1)	(0,2)	(82,0)	(4,0)	(6,0)	(-176,0)	(-1,0)	(168,0)	
L1D -84>	(83,2)	(85,30)	(6,14)	(335,1)	(1,2)	(84,13)	(47,1)	(55,2)	(-104,1)	(-137,1)	(0,13)	(26,6)	(-103,1)	(386,1)	(254,1)	(-74,1)	
L1D -83>	(-9,71)	(108,6)	(83,0)	(194,0)	(0,0)	(-5,7)	(84,1)	(1,0)	(1,0)	(1,0)	(1,0)	(1,0)	(1,0)	(1,0)	(1,0)	(1,0)	
L1D -82>	(117,124)	(-5,14)	(-104,1)	(83,1)	(0,2)	(6,1)	(352,0)	(1,0)	(1,0)	(1,0)	(1,0)	(1,0)	(1,0)	(1,0)	(1,0)	(1,0)	
L1D -81>	(-7,114)	(116,77)	(81,13)	(1,16)	(7,4)	(-242,1)	(72,1)	(-1,1)	(256,4)	(75,9)	(3,3)	(82,1)	(4,0)	(0,3)	(2,0)	(-103,0)	
L1D -80>	(115,108)	(80,1)	(368,1)	(81,7)	(69,0)	(4,0)	(0,1)	(79,2)	(1,0)	(1,0)	(1,0)	(1,0)	(1,0)	(1,0)	(1,0)	(1,0)	
L1D -79>	(0,83)	(1,13)	(-223,1)	(79,14)	(-145,1)	(481,1)	(-84,1)	(75,12)	(355,3)	(2,4)	(334,1)	(132,6)	(239,1)	(116,1)	(-222,1)	(188,1)	
L1D -78>	(78,0)	(0,120)	(60,122)	(79,0)	(-1,0)	(98,0)	(113,4)	(5,0)	(83,0)	(1,0)	(1,0)	(1,0)	(1,0)	(1,0)	(1,0)	(1,0)	
L1D -77>	(1,7)	(0,9)	(77,11)	(78,10)	(57,4)	(4,1)	(231,1)	(182,1)	(-142,1)	(116,1)	(164,1)	(-13,1)	(20,1)	(120,1)	(64,1)	(-2,1)	
L1D -76>	(1,12)	(0,18)	(83,4)	(2,12)	(92,1)	(16,1)	(178,1)	(76,6)	(28,1)	(77,3)	(-1,1)	(-9,1)	(82,13)	(47,4)	(134,1)	(-18,1)	
L1D -75>	(0,63)	(1,121)	(32,25)	(360,1)	(75,8)	(101,0)	(18,27)	(170,0)	(76,4)	(128,1)	(-104,0)	(140,0)	(-154,0)	(-219,0)	(61,0)	(-188,0)	
L1D -74>	(1,8)	(17,93)	(74,6)	(0,8)	(2,1)	(33,0)	(76,0)	(75,1)	(26,3)	(132,0)	(483,0)	(-1,5)	(224,0)	(5,0)	(-134,0)	(-20,0)	
L1D -73>	(61,2)	(73,33)	(0,10)	(1,32)	(221,1)	(74,3)	(67,12)	(3,6)	(48,1)	(228,1)	(16,3)	(124,1)	(47,1)	(6,1)	(72,1)	(13,1)	
L1D -72>	(73,33)	(72,10)	(-4,54)	(0,15)	(1,10)	(91,1)	(320,1)	(53,3)	(78,1)	(216,1)	(61,1)	(255,1)	(6,1)	(-23,1)	(-103,1)	(103,1)	
L1D -71>	(76,15)	(1,9)	(72,4)	(175,1)	(-116,1)	(173,1)	(71,8)	(-234,1)	(116,1)	(-6,1)	(124,6)	(0,4)	(33,1)	(3,1)	(32,4)	(146,1)	
L1D -70>	(-222,0)	(-69,0)	(-85,86)	(-103,0)	(0,0)	(71,1)	(70,1)	(124,0)	(51,0)	(201,0)	(2,0)	(1,1)	(1,0)	(1,0)	(1,0)	(1,0)	
L1D -69>	(22,125)	(326,0)	(76,0)	(0,1)	(-262,0)	(-85,10)	(70,0)	(-1,0)	(69,0)	(5,0)	(2,0)	(296,0)	(1,1)	(1,0)	(1,0)	(1,0)	
L1D -68>	(69,4)	(0,28)	(1,15)	(68,10)	(-20,12)	(22,113)	(2,4)	(101,2)	(65,1)	(503,1)	(74,4)	(76,2)	(99,3)	(400,1)	(5,2)	(487,3)	
L1D -67>	(67,30)	(294,1)	(1,26)	(0,16)	(2,2)	(61,19)	(3,9)	(68,5)	(76,1)	(-291,1)	(-9,1)	(66,2)	(146,1)	(-206,1)	(1,0)	(1,0)	
L1D -66>	(-45,112)	(156,1)	(1,3)	(350,0)	(0,3)	(67,11)	(66,2)	(-9,0)	(7,0)	(4,0)	(1,0)	(1,0)	(1,0)	(1,0)	(1,0)	(1,0)	
L1D -65>	(0,10)	(6,10)	(1,24)	(65,24)	(5,2)	(118,5)	(158,1)	(246,1)	(59,26)	(3,10)	(24,2)	(66,11)	(2,3)	(150,1)	(144,1)	(13,1)	
L1D -64>	(1,13)	(65,46)	(2,2)	(0,20)	(69,16)	(58,2)	(-4,29)	(64,3)	(194,1)	(56,1)	(-222,1)	(-71,1)	(63,2)	(28,1)	(-170,1)	(1,0)	
L1D -63>	(108,3)	(1,3)	(0,12)	(128,5)	(116,6)	(64,7)	(60,1)	(156,2)	(416,1)	(191,1)	(63,22)	(24,1)	(368,1)	(124,1)	(100,2)	(107,1)	
L1D -62>	(62,8)	(0,94)	(2,5)	(68,4)	(8,12)	(1,6)	(154,2)	(60,1)	(374,1)	(63,8)	(-1,1)	(76,1)	(56,1)	(99,0)	(34,0)	(73,0)	
L1D -61>	(1,78)	(5,0)	(61,0)	(99,3)	(-214,0)	(-325,0)	(-31,0)	(115,0)	(1,0)	(1,0)	(1,0)	(1,0)	(1,0)	(1,0)	(1,0)	(1,0)	
L1D -60>	(0,0)	(128,0)	(60,105)	(-1,0)	(-2,0)	(1,0)	(43,0)	(1,0)	(1,0)	(1,0)	(1,0)	(1,0)	(1,0)	(1,0)	(1,0)	(1,0)	
L1D -59>	(60,5)	(3,4)	(0,11)	(1,4)	(-269,1)	(59,25)	(-104,1)	(116,2)	(402,1)	(177,1)	(168,1)	(-58,1)	(26,1)	(-98,1)	(18,1)	(5,2)	
L1D -58>	(0,21)	(402,1)	(1,6)	(58,25)	(59,12)	(-4,26)	(-16,1)	(70,1)	(-56,1)	(62,2)	(174,2)	(2,3)	(-240,1)	(-117,1)	(18,1)	(-180,1)	
L1D -57>	(446,1)	(58,7)	(57,76)	(-1,6)	(228,0)	(-10,3)	(62,1)	(-138,0)	(24,0)	(53,0)	(5,0)	(1,0)	(-104,0)	(404,0)	(-254,0)	(-58,0)	
L1D -56>	(16,112)	(30,9)	(62,3)	(57,0)	(28,0)	(259,0)	(6,0)	(0,0)	(56,1)	(33,0)	(68,0)	(2,0)	(1,0)	(1,0)	(1,0)	(1,0)	
L1D -55>	(55,29)	(108,3)	(64,2)	(1,10)	(0,12)	(62,3)	(167,1)	(-1,2)	(56,9)	(-228,1)	(54,1)	(144,1)	(-104,1)	(156,2)	(100,3)	(-188,1)	
L1D -54>	(55,3)	(-2,8)	(86,0)	(223,84)	(5,1)	(53,0)	(0,3)	(110,0)	(16,0)	(1,5)	(54,7)	(-111,0)	(9,1)	(37,0)	(107,0)	(113,0)	
L1D -53>	(0,9)	(53,76)	(1,15)	(159,1)	(54,29)	(2,6)	(161,1)	(5,2)	(99,1)	(223,8)	(20,5)	(62,1)	(-234,1)	(48,1)	(119,1)	(6,1)	
L1D -52>	(-26,120)	(-50,3)	(52,7)	(24,11)	(155,4)	(-103,1)	(156,4)	(98,0)	(362,0)	(0,0)	(53,1)	(194,0)	(1,1)	(5,0)	(1,0)	(1,0)	
L1D -51>	(52,109)	(51,22)	(6,17)	(1,3)	(60,3)	(0,1)	(50,2)	(155,48)	(47,1)	(26,3)	(5,3)	(234,0)	(-2,0)	(-260,1)	(-26,1)	(49,0)	
L1D -50>	(0,47)	(50,76)	(1,6)	(113,2)	(4,2)	(55,16)	(-220,1)	(51,31)	(48,2)	(60,18)	(24,8)	(456,1)	(-344,1)	(-300,2)	(362,1)	(150,1)	
L1D -49>	(50,49)	(2,24)	(1,13)	(49,50)	(0,18)	(-236,1)	(147,1)	(61,1)	(48,2)	(6,2)	(-206,1)	(40,1)	(21,1)	(-2,1)	(-8,1)	(5,1)	
L1D -48>	(47,15)	(48,40)	(49,45)	(7,40)	(1,7)	(2,3)	(31,2)	(0,17)	(52,4)	(113,6)	(55,4)	(53,2)	(37,3)	(-4,1)	(-21,1)	(136,1)	
L1D -47>	(0,11)	(52,0)	(47,82)	(143,0)	(14,0)	(2,0)	(48,0)	(60,0)	(1,0)	(1,0)	(1,0)	(1,0)	(1,0)	(1,0)	(1,0)	(1,0)	
L1D -46>	(45,89)	(26,0)	(-4,14)	(93,22)	(0,0)	(47,0)	(204,0)	(128,0)	(256,0)	(44,0)	(1,1)	(1,0)	(1,0)	(1,0)	(1,0)	(1,0)	
L1D -45>	(93,112)	(46,4)	(5,1)	(98,1)	(72,3)	(0,2)	(45,3)	(2,2)	(44,1)	(12,1)	(282,1)	(260,1)	(40,1)	(368,0)	(1,1)	(1,0)	
L1D -44>	(43,37)	(44,26)	(0,16)	(19,9)	(24,4)	(1,14)	(-250,1)	(-235,1)	(45,17)	(-236,1)	(-103,3)	(-232,3)	(134,1)	(-134,1)	(-1,3)	(60,1)	
L1D -43>	(0,1)	(-13,123)	(107,1)	(-104,1)	(43,4)	(-9,0)	(70,4)	(48,1)	(44,2)	(1,1)	(2,3)	(-10,0)	(6,2)	(305,0)	(23,0)	(3,0)	
L1D -42>	(6,30)	(-238,1)	(147,1)	(70,1)	(170,3)	(33,92)	(42,4)	(26,0)	(30,2)	(103,0)	(43,2)	(-8,1)	(286,0)	(1,0)	(-277,0)	(0,0)	
L1D -41>	(5,10)	(-216,1)	(-244,1)	(2,26)	(41,41)	(1,22)	(6,51)	(3,2)	(46,4)	(40,2)	(48,4)	(8,26)	(42,24)	(-1,8)	(0,9)	(170,10)	
L1D -40>	(0,83)	(41,6)	(-16,38)	(40,8)	(3,0)	(1,2)	(29,2)	(18,0)	(45,1)	(5,0)	(26,0)	(-248,0)	(2,1)	(-2,0)	(129,0)	(1,0)	
L1D -39>	(19,4)	(39,20)	(0,94)	(-224,4)	(-187,13)	(1,33)	(40,7)	(3,8)	(-211,4)	(2,39)	(5,1)	(-194,2)	(6,35)	(-205,1)	(29,8)	(138,1)	
L1D -38>	(2,38)	(36,25)	(41,20)	(1,19)	(0,31)	(39,14)	(-248,2)	(6,3)	(37,2)	(-212,1)	(38,29)	(-220,2)	(282,1)	(24,5)	(19,7)	(-10,2)	
L1D -37>	(19,105)	(37,40)	(1,36)	(0,9)	(6,18)	(2,59)	(-270,1)	(36,4)	(38,15)	(5,3)	(165,6)	(113,9)	(-204,2)	(66,1)	(-232,1)	(34,3)	
L1D -36>	(103,1)	(187,1)	(41,1)	(36,2)	(38,116)	(-246,1)	(0,10)	(13,0)	(3,0)	(1,1)	(37,1)	(5,0)	(25,0)	(483,0)	(8,0)	(1,0)	
L1D -35>	(-81,31)	(35,7)	(-82,94)	(16,1)	(-80,36)	(-9,0)	(42,0)	(6,2)	(2,2)	(-78,5)	(-14,0)	(0,0)	(36,0)	(1,0)	(1,0)	(1,0)	
L1D -34>	(-1,30)	(35,4)	(2,1)	(-14,1)	(8,2)	(1,2)	(-70,1)	(-248,0)	(0,1)	(34,3)	(28,0)	(38,93)	(107,0)	(-8,8)	(14,0)	(3,0)	
L1D -33>	(14,7)	(28,27)	(33,102)	(2,7)	(50,32)	(1,6)	(0,50)	(30,10)	(19,84)	(20,42)	(46,59)	(-248,1)	(180,61)	(34,3)	(42,7)	(-216,9)	
L1D -32>	(-280,1)	(19,0)	(1,2)	(0,7)	(102,71)	(-24,14)	(-132,0)	(28,14)	(33,2)	(56,0)	(13,0)	(32,1)	(-14,47)	(5,0)	(-10,1)	(-8,0)	
L1D -31>	(31,3)	(0,5)	(30,0)	(-14,69)	(-176,0)	(-423,0)	(4,12)	(12,1)	(32,2)	(37,0)	(-8,0)	(33,0)	(-433,0)	(91,1)	(109,0)	(-234,0)	
L1D -30>	(3,69)	(6,120)	(-14,5)	(16,19)	(31,9)	(0,32)	(1,8)	(2,11)	(292,1)	(30,15)	(13,76)	(-248,3)	(-2,16)	(18,3)	(-46,3)	(56,1)	
L1D -29>	(0,5)	(30,7)	(2,3)	(29,6)	(-196,1)	(3,9)	(-216,2)	(-1,32)	(-6,4)	(6,31)	(26,119)	(410,1)	(-14,1)	(34,2)	(43,111)	(-204,1)	
L1D -28>	(2,71)	(256,2)	(32,3)	(1,1)	(28,24)	(34,1)	(29,1)	(25,13)	(10,36)	(0,2)	(408,0)	(-26,0)	(24,2)	(-228,0)	(5,0)	(56,2)	
L1D -27>	(27,47)	(1,61)	(0,1)	(40,69)	(4,5)	(-1,0)	(-22,0)	(28,1)	(2,0)	(7,0)	(16,0)	(1,0)	(1,0)	(1,0)	(1,0)	(1,0)	
L1D -26>	(33,121)	(40,46)	(5,18)	(180,20)	(-13,41)	(28,20)	(34,32)	(25,36)	(27,4)	(35,49)	(45,26)	(0,10)	(1,15)	(19,88)	(26,34)	(3,1)	
L1D -25>	(26,36)	(25,12)	(1,7)	(0,33)	(41,68)	(103,0)	(117,0)	(18,3)	(141,0)	(-57,2)	(-52,1)	(77,6)	(-239,0)	(5,0)	(22,1)	(6,1)	
L1D -24>	(33,6)	(0,19)	(6,16)	(-6,2)	(-2,124)	(8,7)	(-8,39)	(13,3)	(103,1)	(99,1)	(24,9)	(25,5)	(23,4)	(19,6)	(7,6)	(3,3)	
L1D -23>	(2,46)	(19,0)	(0,85)	(22,42)	(23,4)	(402,0)	(-100,0)	(-13,1)	(-84,0)	(-57,0)	(24,1)	(-230,0)	(20,0)	(3,16)	(1,0)	(1,0)	
L1D -22>	(22,1)	(27,1)	(0,104)	(-6,6)	(25,1)	(250,23)	(18,6)	(28,0)	(-92,0)	(23,1)	(2,3)	(7,0)	(13,1)	(17,0)	(-256,0)	(41,0)	
L1D -21>	(1,83)	(41,1)	(-14,0)	(21,35)	(22,1)	(-3,8)	(-78,4)	(9,0)	(17,1)	(-2,1)	(0,1)	(2,0)	(5,0)	(1,0)	(1,0)	(1,0)	
L1D -20>	(9,123)	(3,10)	(13,85)	(0,121)	(6,32)	(-57,2)	(20,100)	(26,55)	(19,8)	(23,43)	(1,7)	(-1,1)	(24,26)	(-92,2)	(-276,2)	(-4,16)	
L1D -19>	(19,25)	(-1,1)	(28,1)	(-13,89)	(26,2)	(25,0)	(-8,12)	(223,0)	(1,4)	(-276,0)	(-2,0)	(227,0)	(-10,0)	(0,0)	(9,4)	(-7,0)	
L1D -18>	(18,2)	(19,1)	(0,75)	(1,101)	(15,1)	(-2,2)	(22,14)	(10,3)	(-4,44)	(12,14)	(4,16)	(9,10)	(-24,1)	(75,4)	(-6,15)	(-1,16)	
L1D -17>	(-2,22)	(17,29)	(16,72)	(7,1)	(6,1)	(0,4)	(-239,1)	(1,2)	(-91,16)	(-270,0)	(-1,0)	(-13,5)	(-29,0)	(2,0)	(18,1)	(12,9)	
L1D -16>	(16,20)	(1,100)	(7,4)	(2,35)	(17,26)	(-26,32)	(56,1)	(30,10)	(-14,1)	(14,9)	(0,76)	(-25,1)	(-3,48)	(-83,49)	(-2,38)	(-22,4)	
L1D -15>	(1,7)	(-4,7)	(15,9)	(31,122)	(0,5)	(-5,10)	(-248,1)	(-19,2)	(13,3)	(16,8)	(-286,1)	(-51,4)	(3,2)	(-268,2)	(368,1)	(-254,2)	
L1D -14>	(6,68)	(0,15)	(142,1)	(26,5)	(-4,108)	(31,0)	(-166,0)	(1,25)	(-14,37)	(13,8)	(-26,9)	(3,113)	(9,6)	(24,0)	(-16,1)	(14,1)	
L1D -13>	(1,70)	(14,1)	(-5,6)	(301,0)	(13,2)	(-11,0)	(4,0)	(117,0)	(0,3)	(3,3)	(-6,3)	(38,0)	(101,0)	(24,0)	(-191,0)	(11,2)	
L1D -12>	(11,1)	(-16,2)	(13,17)	(12,69)	(-105,33)	(4,52)	(-108,1)	(1,3)	(2,0)	(-98,39)	(38,7)	(0,6)	(9,0)	(-19,4)	(-1,1)	(400,0)	
L1D -11>	(0,50)	(-16,1)	(-9,1)	(-13,110)	(-25,1)	(11,6)	(-98,2)	(1,6)	(-29,1)	(39,1)	(391,1)	(13,46)	(-79,2)	(12,1)	(-37,0)	(-1,13)	
L1D -10>	(39,1)	(7,20)	(0,71)	(1,31)	(10,33)	(117,22)	(11,1)	(-8,5)	(28,39)	(146,1)	(154,7)	(-18,1)	(265,2)	(-98,4)	(-2,12)	(3,12)	
L1D -9>	(12,65)	(287,0)	(-18,0)	(2,0)	(145,0)	(1,3)	(238,0)	(9,2)	(269,0)	(117,2)	(-99,0)	(-233,0)	(233,0)	(0,1)	(-240,0)	(116,0)	
L1D -8>	(2,113)	(-4,40)	(-22,28)	(115,25)	(-10,12)	(0,2)	(1,84)	(18,1)	(-5,7)	(-19,2)	(-26,13)	(9,2)	(4,7)	(-24,9)	(8,2)	(-18,9)	
L1D -7>	(14,1)	(0,53)	(1,110)	(-26,33)	(-29,11)	(-9,2)	(8,1)	(-18,5)	(154,1)	(7,42)	(123,3)	(313,0)	(105,0)	(-103,0)	(16,5)	(6,3)	
L1D -6>	(-30,4)	(-3,4)	(1,96)	(33,14)	(-12,4)	(3,61)	(6,17)	(-11,6)	(-7,1)	(-449,2)	(0,11)	(-167,2)	(-168,10)	(153,5)	(-56,3)	(-24,2)	
L1D -5>	(1,101)	(-19,3)	(90,1)	(10,19)	(7,19)	(-4,48)	(5,66)	(0,27)	(2,1)	(-103,2)	(-251,10)	(15,1)	(19,8)	(-245,7)	(28,7)	(117,1)	
L1D -4>	(0,64)	(1,62)	(4,97)	(22,15)	(-4,25)	(6,22)	(3,28)	(170,2)	(-99,34)	(-3,2)	(-168,10)	(341,6)	(28,2)	(-16,8)	(-2,11)	(-18,1)	
L1D -3>	(1,24)	(-132,1)	(0,66)	(171,2)	(4,4)	(-9,33)	(3,20)	(-7,10)	(22,5)	(-3,5)	(-20,1)	(-15,1)	(-2,4)	(6,4)	(5,1)	(2,26)	
L1D -2>	(1,105)	(-36,44)	(24,11)	(-2,2)	(2,85)	(7,1)	(-3,3)	(5,2)	(-108,4)	(-11,10)	(19,3)	(3,3)	(28,6)	(0,13)	(4,1)	(-5,1)	
L1D -1>	(0,115)	(87,3)	(3,8)	(2,4)	(86,5)	(-1,21)	(100,42)	(-3,16)	(1,109)	(14,6)	(39,2)	(-5,26)	(12,64)	(-32,2)	(47,1)	(-4,7)	
L1D 0>	(10,1)	(0,104)	(-1,1)	(1,1)	(9,1)	(306,1)	(5,1)	(-7,1)	(98,0)	(-251,0)	(2,0)	(50,0)	(-9,3)	(7,0)	(-99,0)	(-20,0)	
L1D 1>	(-5,1)	(-2,1)	(1,81)	(2,5)	(-1,1)	(-3,3)	(7,2)	(-222,1)	(-8,1)	(0,4)	(6,0)	(-6,3)	(3,0)	(-16,0)	(-14,2)	(33,0)	
L1D 2>	(5,1)	(-7,14)	(7,1)	(0,1)	(19,0)	(1,98)	(-2,31)	(-10,0)	(-13,11)	(9,0)	(6,0)	(18,5)	(2,1)	(-3,1)	(4,1)	(-28,1)	
L1D 3>	(-3,61)	(1,80)	(-23,0)	(2,1)	(0,3)	(-4,0)	(-10,4)	(17,5)	(5,2)	(-1,4)	(-45,0)	(-8,32)	(-2,2)	(6,46)	(-41,0)	(10,3)	
L1D 4>	(0,21)	(-4,120)	(10,5)	(7,18)	(4,6)	(6,1)	(-277,15)	(1,1)	(-1,12)	(-30,8)	(17,3)	(114,6)	(9,3)	(-7,3)	(-3,1)	(-47,10)	
L1D 5>	(1,112)	(140,5)	(341,6)	(-4,11)	(6,38)	(-5,87)	(0,6)	(3,4)	(-3,15)	(-2,11)	(477,1)	(13,5)	(-1,16)	(85,14)	(4,3)	(17,6)	
L1D 6>	(-174,15)	(-6,23)	(12,12)	(-5,1)	(20,9)	(18,1)	(27,3)	(-3,3)	(4,1)	(173,2)	(1,86)	(-25,2)	(-15,0)	(-18,0)	(-20,1)	(164,0)	
L1D 7>	(-7,27)	(0,47)	(-1,74)	(-6,25)	(1,50)	(-26,5)	(-17,1)	(259,0)	(2,6)	(-42,11)	(-4,8)	(-16,2)	(-33,14)	(-10,18)	(13,4)	(-8,0)	
L1D 8>	(1,69)	(0,19)	(-10,0)	(-16,0)	(20,0)	(-30,0)	(15,1)	(4,0)	(-20,5)	(5,2)	(296,0)	(16,0)	(-6,0)	(-250,0)	(276,0)	(-7,0)	
L1D 9>	(1,85)	(4,36)	(0,18)	(3,4)	(-18,1)	(-9,7)	(-7,17)	(18,2)	(-42,10)	(12,1)	(7,3)	(-87,1)	(-3,9)	(17,1)	(-16,3)	(-8,7)	
L1D 10>	(1,73)	(-9,39)	(8,111)	(-10,28)	(-18,7)	(2,18)	(19,3)	(20,5)	(-109,1)	(0,98)	(-8,62)	(-11,78)	(-6,15)	(-3,17)	(7,41)	(-12,27)	
L1D 11>	(-1,15)	(-11,18)	(2,8)	(1,117)	(-35,23)	(22,5)	(9,10)	(-12,52)	(7,14)	(-7,8)	(-2,127)	(-117,1)	(-110,56)	(-21,2)	(21,5)	(-10,21)	
L1D 12>	(-20,23)	(-3,116)	(-12,10)	(-409,0)	(4,2)	(8,2)	(-11,1)	(1,15)	(-8,0)	(26,4)	(0,1)	(-1,0)	(-6,8)	(-13,1)	(-15,0)	(24,2)	
L1D 13>	(25,14)	(-85,1)	(-2,47)	(0,5)	(-10,55)	(26,7)	(-13,15)	(11,3)	(1,11)	(-1,22)	(3,1)	(-9,6)	(17,7)	(28,1)	(-3,0)	(7,79)	
L1D 14>	(-14,16)	(26,100)	(-90,1)	(20,3)	(28,3)	(27,7)	(6,4)	(-6,1)	(-13,3)	(-25,3)	(0,2)	(-12,1)	(3,1)	(-9,7)	(-2,2)	(11,2)	
L1D 15>	(-273,1)	(1,3)	(-10,12)	(-15,10)	(30,6)	(0,114)	(26,13)	(22,3)	(106,1)	(-25,1)	(17,5)	(313,51)	(20,2)	(-13,0)	(32,1)	(29,3)	
L1D 16>	(32,1)	(1,16)	(19,1)	(14,3)	(-16,16)	(0,82)	(30,0)	(-2,4)	(-32,1)	(40,0)	(-18,1)	(-1,0)	(-15,1)	(34,0)	(31,2)	(7,2)	
L1D 17>	(-1,73)	(-6,63)	(-31,28)	(0,12)	(-23,52)	(-19,4)	(-17,19)	(-20,61)	(34,1)	(-11,7)	(-3,41)	(-18,27)	(57,2)	(-30,5)	(33,2)	(45,4)	
L1D 18>	(17,4)	(21,4)	(-42,1)	(-18,30)	(-78,105)	(-3,1)	(-20,2)	(-40,0)	(11,0)	(36,2)	(5,0)	(0,29)	(9,3)	(26,2)	(-2,0)	(-24,1)	
L1D 19>	(1,93)	(258,2)	(-18,44)	(-80,5)	(-24,2)	(37,1)	(-176,2)	(-6,7)	(220,3)	(38,1)	(228,1)	(-19,37)	(-17,4)	(6,4)	(240,3)	(-50,1)	
L1D 20>	(-20,82)	(0,28)	(-26,55)	(40,2)	(-275,0)	(-18,20)	(-1,3)	(42,1)	(-6,26)	(216,0)	(154,2)	(7,1)	(6,1)	(3,23)	(-21,0)	(-330,0)	
L1D 21>	(-99,15)	(-1,1)	(-18,40)	(0,4)	(-26,1)	(26,2)	(41,1)	(7,70)	(-3,30)	(-21,64)	(42,3)	(-19,7)	(-17,9)	(-20,2)	(-23,35)	(1,1)	
L1D 22>	(306,40)	(-66,34)	(146,101)	(44,2)	(-108,56)	(-111,6)	(9,35)	(2,1)	(0,1)	(-88,1)	(-16,72)	(-22,4)	(43,1)	(-24,0)	(48,0)	(3,0)	
L1D 23>	(168,1)	(-3,5)	(0,124)	(45,3)	(-23,10)	(2,1)	(-29,4)	(48,1)	(1,0)	(46,4)	(-22,0)	(242,0)	(-238,0)	(-2,1)	(-36,0)	(4,3)	
L1D 24>	(146,54)	(1,6)	(-24,25)	(9,25)	(48,9)	(0,10)	(32,66)	(-21,14)	(5,0)	(33,2)	(-20,29)	(-18,16)	(47,2)	(29,48)	(-23,1)	(50,2)	
L1D 25>	(1,5)	(-27,116)	(-25,52)	(17,1)	(50,5)	(52,44)	(49,5)	(-26,0)	(20,0)	(3,0)	(-3,2)	(4,0)	(-1,0)	(0,0)	(1,0)	(1,0)	
L1D 26>	(-28,44)	(51,42)	(-40,31)	(-56,127)	(2,101)	(-26,74)	(52,97)	(-20,61)	(-4,46)	(-25,24)	(6,7)	(-3,17)	(7,3)	(-7,2)	(155,1)	(1,48)	
L1D 27>	(-23,121)	(17,2)	(2,14)	(-11,9)	(-27,50)	(0,4)	(-33,6)	(53,18)	(54,9)	(7,9)	(3,2)	(-82,13)	(56,1)	(9,23)	(-1,3)	(13,4)	
L1D 28>	(147,6)	(-28,79)	(17,18)	(4,50)	(-14,59)	(80,1)	(-26,18)	(58,2)	(-27,91)	(28,35)	(-39,2)	(-54,34)	(-76,1)	(228,1)	(56,0)	(55,2)	
L1D 29>	(17,1)	(-29,4)	(3,1)	(-28,69)	(24,1)	(-246,0)	(220,0)	(-2,2)	(1,6)	(58,2)	(-251,0)	(-39,6)	(-32,0)	(6,0)	(0,2)	(382,0)	
L1D 30>	(62,8)	(-30,36)	(26,90)	(-1,6)	(0,12)	(-14,94)	(59,14)	(60,19)	(20,2)	(16,81)	(-20,5)	(1,7)	(-29,6)	(-182,1)	(4,2)	(219,4)	
L1D 31>	(-82,1)	(61,5)	(4,5)	(-31,5)	(62,10)	(-415,1)	(6,5)	(7,115)	(-2,4)	(-1,1)	(11,1)	(1,1)	(0,5)	(64,1)	(9,34)	(17,4)	
L1D 32>	(0,2)	(66,1)	(-4,1)	(20,1)	(70,21)	(-32,108)	(63,2)	(-56,2)	(64,2)	(-31,2)	(-30,6)	(5,0)	(-18,0)	(2,0)	(-25,0)	(4,0)	
L1D 33>	(0,19)	(-31,11)	(211,8)	(-7,89)	(2,16)	(9,55)	(-33,47)	(245,7)	(175,2)	(233,2)	(1,1)	(269,5)	(66,1)	(261,3)	(-41,1)	(281,5)	
L1D 34>	(-2,1)	(-250,1)	(-4,2)	(-8,87)	(3,1)	(-1,1)	(-34,2)	(68,2)	(1,2)	(-28,3)	(0,2)	(-33,1)	(5,0)	(17,1)	(67,2)	(70,2)	
L1D 35>	(-116,4)	(-35,5)	(70,3)	(-117,13)	(7,100)	(5,2)	(-115,7)	(-9,9)	(-254,1)	(-113,1)	(4,2)	(69,1)	(-21,1)	(-68,1)	(72,1)	(1,2)	
L1D 36>	(5,18)	(128,81)	(0,14)	(2,24)	(-36,38)	(-16,31)	(129,9)	(-260,2)	(1,23)	(-256,1)	(72,35)	(71,11)	(-15,2)	(17,17)	(-35,11)	(-20,11)	
L1D 37>	(-37,92)	(-2,9)	(0,13)	(1,5)	(-260,1)	(76,1)	(-1,24)	(73,6)	(74,18)	(2,3)	(11,3)	(5,1)	(17,8)	(-36,1)	(-376,1)	(-18,1)	
L1D 38>	(1,39)	(0,35)	(-2,67)	(-38,1)	(52,1)	(76,0)	(2,0)	(250,0)	(252,0)	(276,0)	(75,0)	(-98,1)	(-30,6)	(234,1)	(230,0)	(226,0)	
L1D 39>	(11,91)	(5,1)	(264,1)	(250,1)	(-226,1)	(-46,2)	(-30,4)	(-21,3)	(-258,2)	(-242,0)	(226,0)	(232,0)	(-41,0)	(-39,2)	(-292,0)	(262,0)	
L1D 40>	(-32,0)	(-34,29)	(-39,0)	(-40,1)	(-56,5)	(-26,1)	(386,71)	(-262,0)	(0,0)	(-38,0)	(5,0)	(79,0)	(80,1)	(-84,0)	(-205,0)	(1,0)	
L1D 41>	(-4,1)	(-2,5)	(-41,3)	(6,6)	(7,123)	(-1,1)	(-258,1)	(386,7)	(-93,2)	(81,1)	(3,1)	(0,1)	(45,1)	(82,1)	(5,3)	(1,2)	
L1D 42>	(-9,63)	(-42,50)	(84,32)	(0,17)	(128,24)	(5,22)	(86,11)	(17,8)	(-12,12)	(1,13)	(83,15)	(-16,6)	(-7,1)	(-20,7)	(-41,6)	(82,5)	
L1D 43>	(12,11)	(5,7)	(-413,1)	(-43,21)	(1,3)	(85,8)	(0,5)	(-1,7)	(2,51)	(86,7)	(11,96)	(-66,1)	(-284,1)	(88,2)	(17,2)	(56,1)	
L1D 44>	(-1,77)	(-44,24)	(90,10)	(2,16)	(11,96)	(1,15)	(105,1)	(-242,1)	(12,7)	(0,7)	(88,15)	(87,7)	(203,6)	(4,1)	(5,1)	(-43,3)	
L1D 45>	(11,0)	(-44,1)	(-47,0)	(-1,79)	(0,0)	(48,0)	(46,0)	(27,1)	(-38,0)	(89,0)	(90,1)	(-45,1)	(3,0)	(-31,8)	(92,0)	(1,0)	
L1D 46>	(4,1)	(0,1)	(1,2)	(-1,0)	(6,0)	(241,0)	(-46,8)	(2,0)	(91,3)	(92,5)	(-32,73)	(-45,2)	(94,2)	(5,0)	(20,1)	(220,0)	
L1D 47>	(-10,1)	(-4,109)	(94,2)	(85,1)	(95,1)	(87,1)	(13,1)	(5,1)	(1,2)	(-146,3)	(-9,1)	(0,4)	(96,2)	(93,1)	(29,1)	(65,3)	
L1D 48>	(-93,68)	(-48,72)	(96,56)	(1,24)	(95,17)	(3,24)	(-4,15)	(-2,19)	(2,5)	(0,21)	(12,6)	(-266,1)	(98,17)	(-34,10)	(-47,15)	(4,4)	
L1D 49>	(-49,104)	(-18,2)	(0,10)	(97,33)	(98,54)	(5,15)	(54,1)	(1,12)	(-114,1)	(-9,1)	(-6,1)	(4,3)	(-2,1)	(100,6)	(-393,1)	(-1,1)	
L1D 50>	(99,5)	(-50,11)	(100,12)	(98,0)	(21,70)	(-99,0)	(2,6)	(102,0)	(-49,1)	(0,1)	(1,1)	(30,0)	(1,0)	(1,0)	(1,0)	(1,0)	
L1D 51>	(1,12)	(-51,26)	(-59,1)	(5,2)	(102,8)	(-284,1)	(101,4)	(4,1)	(104,92)	(40,1)	(0,1)	(-1,0)	(20,0)	(87,0)	(31,0)	(24,0)	
L1D 52>	(103,13)	(5,0)	(2,0)	(-100,0)	(1,11)	(4,2)	(104,103)	(106,0)	(-51,12)	(-52,3)	(0,0)	(168,0)	(1,0)	(1,0)	(1,0)	(1,0)	
L1D 53>	(1,9)	(5,2)	(4,14)	(106,26)	(170,16)	(108,3)	(-1,1)	(-53,20)	(-2,1)	(45,79)	(-32,1)	(0,10)	(105,6)	(-50,1)	(361,0)	(103,0)	
L1D 54>	(2,6)	(0,10)	(-54,51)	(106,4)	(-51,2)	(107,29)	(20,8)	(108,57)	(110,3)	(5,9)	(72,1)	(1,13)	(-53,19)	(-116,1)	(-57,1)	(54,2)	
L1D 55>	(-55,22)	(110,28)	(109,12)	(3,23)	(5,6)	(1,21)	(-1,3)	(-274,1)	(2,2)	(-2,11)	(-432,1)	(0,12)	(342,1)	(-10,4)	(-288,1)	(112,5)	
L1D 56>	(1,5)	(-54,31)	(-28,10)	(-26,5)	(-60,11)	(111,8)	(2,2)	(-40,31)	(-55,4)	(84,17)	(-56,26)	(6,1)	(110,6)	(112,18)	(434,1)	(0,14)	
L1D 57>	(-57,69)	(3,0)	(113,0)	(-7,0)	(-75,4)	(171,0)	(114,2)	(4,0)	(-5,0)	(6,0)	(-4,1)	(0,1)	(78,0)	(-28,0)	(1,0)	(1,0)	
L1D 58>	(0,13)	(170,43)	(-62,14)	(-56,9)	(5,4)	(-58,35)	(116,32)	(115,14)	(1,5)	(118,8)	(-114,2)	(3,2)	(-57,21)	(-1,1)	(192,1)	(4,3)	
L1D 59>	(-59,20)	(1,8)	(117,11)	(-2,2)	(3,1)	(-56,26)	(118,21)	(-63,1)	(-43,3)	(-20,1)	(6,2)	(0,9)	(-39,4)	(120,3)	(-1,4)	(-117,1)	
L1D 60>	(18,101)	(38,82)	(-60,88)	(39,59)	(295,0)	(120,0)	(-61,38)	(4,0)	(0,0)	(321,1)	(-352,1)	(5,0)	(122,0)	(1,0)	(1,0)	(1,0)	
L1D 61>	(39,66)	(18,2)	(-60,62)	(38,68)	(0,9)	(1,7)	(-61,49)	(122,9)	(-7,3)	(-23,2)	(-58,11)	(124,1)	(22,1)	(-275,1)	(5,1)	(121,1)	
L1D 62>	(124,1)	(-94,1)	(-6,0)	(196,98)	(40,0)	(126,0)	(166,0)	(1,0)	(-20,0)	(1,0)	(1,0)	(1,0)	(1,0)	(1,0)	(1,0)	(1,0)	
L1D 63>	(-31,1)	(-62,1)	(-63,18)	(1,17)	(-2,2)	(125,11)	(5,5)	(-45,5)	(126,20)	(-59,1)	(0,8)	(128,7)	(-1,2)	(29,2)	(-10,1)	(-42,1)	
L1D 64>	(0,22)	(-63,9)	(-68,6)	(-1,1)	(128,14)	(180,1)	(-6,1)	(-20,3)	(-42,1)	(5,3)	(127,6)	(1,13)	(19,2)	(-64,13)	(74,1)	(-66,1)	
L1D 65>	(-28,15)	(0,5)	(1,7)	(-65,64)	(24,1)	(5,19)	(129,8)	(56,3)	(130,13)	(-1,3)	(-6,2)	(18,1)	(2,7)	(-55,1)	(132,2)	(40,1)	
L1D 66>	(-6,9)	(-20,22)	(-134,5)	(4,1)	(280,4)	(5,5)	(-66,25)	(132,20)	(2,3)	(1,7)	(40,6)	(134,5)	(-65,4)	(-64,18)	(0,10)	(131,11)	
L1D 67>	(-67,62)	(134,16)	(5,12)	(136,2)	(1,10)	(0,10)	(-10,1)	(2,4)	(-68,1)	(7,2)	(93,1)	(-61,1)	(70,1)	(15,3)	(-64,12)	(133,7)	
L1D 68>	(126,1)	(114,95)	(5,1)	(-68,1)	(2,1)	(136,1)	(-6,1)	(164,0)	(82,0)	(0,5)	(-383,0)	(-67,1)	(135,0)	(188,0)	(146,0)	(-28,0)	
L1D 69>	(5,9)	(93,2)	(-19,1)	(1,12)	(138,10)	(137,3)	(3,22)	(0,11)	(-69,7)	(18,1)	(140,3)	(-2,14)	(2,7)	(-1,3)	(-304,1)	(-4,7)	
L1D 70>	(1,3)	(7,120)	(-157,1)	(152,13)	(321,2)	(0,10)	(-70,15)	(140,10)	(30,1)	(9,21)	(-1,1)	(-69,3)	(139,3)	(6,13)	(-126,1)	(142,2)	
L1D 71>	(93,40)	(17,1)	(-70,1)	(-134,1)	(1,13)	(5,17)	(-71,6)	(141,9)	(142,11)	(-7,2)	(4,3)	(-4,31)	(0,7)	(-14,1)	(-47,1)	(-74,1)	
L1D 72>	(1,6)	(-20,7)	(13,4)	(-11,29)	(0,41)	(14,23)	(143,6)	(-72,23)	(-296,9)	(144,18)	(-76,22)	(-322,1)	(321,6)	(-71,6)	(114,3)	(146,8)	
L1D 73>	(5,7)	(0,11)	(-73,52)	(146,11)	(1,10)	(145,12)	(-78,1)	(-126,1)	(-74,2)	(17,1)	(2,3)	(148,1)	(6,1)	(24,3)	(-7,1)	(-28,2)	
L1D 74>	(-74,21)	(-20,5)	(-73,1)	(-147,2)	(0,18)	(6,2)	(-72,22)	(1,4)	(148,17)	(2,1)	(-8,1)	(150,10)	(147,2)	(-52,3)	(94,3)	(146,2)	
L1D 75>	(17,1)	(-75,69)	(80,1)	(-74,58)	(5,2)	(0,2)	(149,1)	(20,0)	(-2,0)	(18,3)	(152,1)	(150,3)	(2,0)	(68,2)	(-72,11)	(34,0)	
L1D 76>	(1,10)	(-1,2)	(3,23)	(6,1)	(-23,1)	(-9,2)	(5,3)	(154,6)	(0,14)	(152,11)	(80,6)	(-2,12)	(20,3)	(-76,10)	(-14,1)	(151,7)	
L1D 77>	(0,12)	(-77,13)	(154,14)	(-2,7)	(104,80)	(1,9)	(28,1)	(156,5)	(-152,1)	(2,1)	(-51,5)	(4,1)	(292,1)	(3,1)	(-81,2)	(17,2)	
L1D 78>	(-78,98)	(158,0)	(-80,0)	(-82,0)	(5,0)	(35,0)	(-12,0)	(156,0)	(0,0)	(-77,0)	(155,0)	(1,0)	(1,0)	(1,0)	(1,0)	(1,0)	
L1D 79>	(-78,103)	(158,13)	(-79,10)	(1,16)	(0,7)	(14,4)	(4,2)	(-10,13)	(198,1)	(29,3)	(33,1)	(157,3)	(5,3)	(17,2)	(35,2)	(28,1)	
L1D 80>	(-81,39)	(35,24)	(-2,3)	(-80,47)	(7,4)	(0,28)	(160,18)	(-20,13)	(-320,1)	(6,32)	(162,4)	(-79,7)	(14,2)	(-108,2)	(80,3)	(-188,3)	
L1D 81>	(-81,93)	(162,12)	(5,3)	(35,13)	(-82,64)	(1,4)	(-80,56)	(0,10)	(-28,2)	(-78,3)	(161,6)	(-36,1)	(36,1)	(164,4)	(17,1)	(-76,1)	
L1D 82>	(35,39)	(-82,71)	(0,9)	(-80,25)	(-36,19)	(-81,16)	(-79,16)	(-20,11)	(164,9)	(-9,29)	(5,6)	(242,1)	(-46,9)	(86,7)	(138,5)	(186,5)	
L1D 83>	(1,10)	(0,22)	(3,20)	(-83,9)	(-2,12)	(5,1)	(19,1)	(264,1)	(-45,1)	(165,3)	(-1,2)	(-320,1)	(-7,1)	(-165,4)	(-413,1)	(-314,1)	
L1D 84>	(-4,79)	(1,6)	(-48,1)	(-57,0)	(-18,0)	(263,0)	(0,0)	(-49,0)	(2,1)	(1,0)	(1,0)	(1,0)	(1,0)	(1,0)	(1,0)	(1,0)	
L1D 85>	(1,109)	(0,4)	(-86,6)	(-94,1)	(11,0)	(-85,1)	(5,1)	(20,0)	(-169,0)	(-10,1)	(2,0)	(19,0)	(1,0)	(1,0)	(1,0)	(1,0)	
L1D 86>	(1,120)	(-90,39)	(5,1)	(256,31)	(28,2)	(0,2)	(-414,0)	(-86,1)	(-92,0)	(-170,0)	(-171,2)	(-57,0)	(1,0)	(1,0)	(1,0)	(1,0)	
L1D 87>	(-87,81)	(-172,1)	(1,18)	(-206,0)	(246,0)	(-91,1)	(0,0)	(256,8)	(5,0)	(2,1)	(1,0)	(1,0)	(1,0)	(1,0)	(1,0)	(1,0)	
L1D 88>	(0,19)	(-88,20)	(-174,4)	(-196,1)	(19,2)	(-27,1)	(70,1)	(-2,1)	(1,7)	(-87,6)	(-52,1)	(-175,4)	(20,4)	(3,1)	(-34,1)	(5,1)	
L1D 89>	(1,92)	(0,25)	(-176,5)	(201,1)	(24,1)	(-89,16)	(5,8)	(17,3)	(-177,6)	(-7,1)	(-98,2)	(-2,2)	(2,3)	(28,1)	(-228,1)	(-414,1)	
L1D 90>	(1,127)	(-314,1)	(256,3)	(70,1)	(-1,1)	(160,1)	(-179,1)	(3,0)	(-312,0)	(-282,0)	(-2,0)	(1,0)	(1,0)	(1,0)	(1,0)	(1,0)	
L1D 91>	(5,4)	(0,8)	(18,1)	(84,69)	(-91,14)	(-181,2)	(-410,1)	(-390,1)	(1,6)	(48,2)	(26,0)	(14,0)	(4,0)	(-180,0)	(-37,0)	(3,0)	
L1D 92>	(-92,95)	(3,1)	(-183,1)	(1,5)	(-10,1)	(-1,1)	(0,4)	(-91,1)	(4,1)	(-36,0)	(23,0)	(241,0)	(-20,0)	(-228,0)	(1,0)	(1,0)	
L1D 93>	(-93,87)	(1,112)	(0,2)	(-97,57)	(-161,0)	(3,0)	(-200,0)	(-185,0)	(-1,0)	(2,0)	(-184,0)	(1,0)	(1,0)	(1,0)	(1,0)	(1,0)	
L1D 94>	(-94,19)	(-194,1)	(0,30)	(1,22)	(-186,3)	(19,1)	(-2,1)	(-187,10)	(-413,1)	(-100,1)	(-93,6)	(-114,4)	(5,6)	(176,1)	(16,1)	(-218,1)	
L1D 95>	(-95,20)	(-189,11)	(5,7)	(1,11)	(0,22)	(24,2)	(-6,5)	(-10,1)	(128,1)	(-456,1)	(-63,1)	(-188,1)	(18,7)	(364,1)	(-2,1)	(258,1)	
L1D 96>	(1,40)	(-96,6)	(-1,0)	(0,5)	(-189,0)	(20,0)	(-220,0)	(-191,2)	(-3,29)	(-105,64)	(-190,0)	(-95,2)	(3,0)	(-2,0)	(-20,0)	(-211,0)	
L1D 97>	(1,75)	(0,3)	(5,1)	(3,1)	(-97,2)	(-28,1)	(-2,1)	(-192,0)	(-68,5)	(-193,0)	(-69,2)	(2,1)	(18,0)	(1,0)	(1,0)	(1,0)	
L1D 98>	(0,86)	(4,0)	(-99,69)	(-98,28)	(-69,6)	(-20,0)	(-1,8)	(-91,0)	(-70,2)	(-95,0)	(-5,1)	(-195,0)	(1,0)	(1,0)	(1,0)	(1,0)	
L1D 99>	(-98,65)	(-99,19)	(0,6)	(-46,73)	(5,5)	(-10,1)	(7,1)	(-196,1)	(18,4)	(73,0)	(-197,1)	(-5,0)	(115,0)	(1,2)	(1,0)	(1,0)	
L1D 100>	(-46,126)	(3,1)	(-38,1)	(-30,0)	(4,0)	(-199,0)	(-100,1)	(7,0)	(1,0)	(1,0)	(1,0)	(1,0)	(1,0)	(1,0)	(1,0)	(1,0)	
L1D 101>	(1,6)	(-101,24)	(5,27)	(0,48)	(-39,1)	(-200,5)	(-413,1)	(18,5)	(-201,7)	(3,15)	(-2,10)	(28,1)	(17,3)	(-32,1)	(16,6)	(2,2)	
L1D 102>	(0,6)	(-102,3)	(-126,1)	(7,109)	(9,32)	(1,4)	(6,1)	(20,1)	(-203,3)	(-202,0)	(3,0)	(-236,0)	(-101,0)	(94,0)	(5,0)	(1,0)	
L1D 103>	(-103,40)	(0,45)	(1,29)	(-205,96)	(-91,60)	(-5,6)	(14,5)	(6,0)	(101,0)	(5,3)	(3,0)	(64,0)	(18,2)	(1,0)	(1,0)	(1,0)	
L1D 104>	(-1,4)	(8,3)	(0,69)	(1,76)	(-206,21)	(-103,123)	(-205,41)	(-207,1)	(-363,0)	(250,0)	(-414,0)	(-104,2)	(1,0)	(1,0)	(1,0)	(1,0)	
L1D 105>	(-411,122)	(22,10)	(5,1)	(3,1)	(0,0)	(-208,0)	(1,0)	(1,0)	(1,0)	(1,0)	(1,0)	(1,0)	(1,0)	(1,0)	(1,0)	(1,0)	
L1D 106>	(5,5)	(122,0)	(1,4)	(0,18)	(-1,1)	(-105,3)	(-209,1)	(11,104)	(-210,3)	(-186,0)	(-103,0)	(4,0)	(-106,13)	(-211,9)	(-126,0)	(20,0)	
[...]
L1D 477>	(4,14)	(0,1)	(1,0)	(1,0)	(1,0)	(1,0)	(1,0)	(1,0)	(1,0)	(1,0)	(1,0)	(1,0)	(1,0)	(1,0)	(1,0)	(1,0)	
L1D 478>	(0,1)	(1,1)	(-10,1)	(1,0)	(1,0)	(1,0)	(1,0)	(1,0)	(1,0)	(1,0)	(1,0)	(1,0)	(1,0)	(1,0)	(1,0)	(1,0)	
L1D 479>	(4,5)	(0,3)	(1,0)	(1,0)	(1,0)	(1,0)	(1,0)	(1,0)	(1,0)	(1,0)	(1,0)	(1,0)	(1,0)	(1,0)	(1,0)	(1,0)	
L1D 480>	(-470,3)	(1,1)	(-10,1)	(-479,1)	(-480,1)	(1,0)	(1,0)	(1,0)	(1,0)	(1,0)	(1,0)	(1,0)	(1,0)	(1,0)	(1,0)	(1,0)	
L1D 481>	(3,3)	(4,6)	(-232,1)	(0,1)	(1,0)	(1,0)	(1,0)	(1,0)	(1,0)	(1,0)	(1,0)	(1,0)	(1,0)	(1,0)	(1,0)	(1,0)	
L1D 482>	(0,2)	(-325,1)	(4,3)	(1,1)	(1,0)	(1,0)	(1,0)	(1,0)	(1,0)	(1,0)	(1,0)	(1,0)	(1,0)	(1,0)	(1,0)	(1,0)	
L1D 483>	(5,1)	(4,9)	(0,1)	(1,0)	(1,0)	(1,0)	(1,0)	(1,0)	(1,0)	(1,0)	(1,0)	(1,0)	(1,0)	(1,0)	(1,0)	(1,0)	
L1D 484>	(1,2)	(2,1)	(1,0)	(1,0)	(1,0)	(1,0)	(1,0)	(1,0)	(1,0)	(1,0)	(1,0)	(1,0)	(1,0)	(1,0)	(1,0)	(1,0)	
L1D 485>	(4,4)	(0,3)	(-448,1)	(1,1)	(1,0)	(1,0)	(1,0)	(1,0)	(1,0)	(1,0)	(1,0)	(1,0)	(1,0)	(1,0)	(1,0)	(1,0)	
L1D 486>	(0,1)	(1,0)	(1,0)	(1,0)	(1,0)	(1,0)	(1,0)	(1,0)	(1,0)	(1,0)	(1,0)	(1,0)	(1,0)	(1,0)	(1,0)	(1,0)	
L1D 487>	(4,7)	(-282,1)	(3,3)	(1,1)	(1,0)	(1,0)	(1,0)	(1,0)	(1,0)	(1,0)	(1,0)	(1,0)	(1,0)	(1,0)	(1,0)	(1,0)	
L1D 488>	(5,1)	(1,0)	(1,0)	(1,0)	(1,0)	(1,0)	(1,0)	(1,0)	(1,0)	(1,0)	(1,0)	(1,0)	(1,0)	(1,0)	(1,0)	(1,0)	
L1D 489>	(4,1)	(1,0)	(1,0)	(1,0)	(1,0)	(1,0)	(1,0)	(1,0)	(1,0)	(1,0)	(1,0)	(1,0)	(1,0)	(1,0)	(1,0)	(1,0)	
L1D 490>	(1,2)	(-490,1)	(0,2)	(1,0)	(1,0)	(1,0)	(1,0)	(1,0)	(1,0)	(1,0)	(1,0)	(1,0)	(1,0)	(1,0)	(1,0)	(1,0)	
L1D 491>	(4,1)	(1,0)	(1,0)	(1,0)	(1,0)	(1,0)	(1,0)	(1,0)	(1,0)	(1,0)	(1,0)	(1,0)	(1,0)	(1,0)	(1,0)	(1,0)	
L1D 492>	(0,2)	(-492,1)	(1,0)	(1,0)	(1,0)	(1,0)	(1,0)	(1,0)	(1,0)	(1,0)	(1,0)	(1,0)	(1,0)	(1,0)	(1,0)	(1,0)	
L1D 493>	(1,0)	(1,0)	(1,0)	(1,0)	(1,0)	(1,0)	(1,0)	(1,0)	(1,0)	(1,0)	(1,0)	(1,0)	(1,0)	(1,0)	(1,0)	(1,0)	
L1D 494>	(-144,1)	(1,2)	(0,1)	(1,0)	(1,0)	(1,0)	(1,0)	(1,0)	(1,0)	(1,0)	(1,0)	(1,0)	(1,0)	(1,0)	(1,0)	(1,0)	
L1D 495>	(1,1)	(4,1)	(0,1)	(1,0)	(1,0)	(1,0)	(1,0)	(1,0)	(1,0)	(1,0)	(1,0)	(1,0)	(1,0)	(1,0)	(1,0)	(1,0)	
L1D 496>	(-496,1)	(1,0)	(1,0)	(1,0)	(1,0)	(1,0)	(1,0)	(1,0)	(1,0)	(1,0)	(1,0)	(1,0)	(1,0)	(1,0)	(1,0)	(1,0)	
L1D 497>	(4,3)	(1,0)	(1,0)	(1,0)	(1,0)	(1,0)	(1,0)	(1,0)	(1,0)	(1,0)	(1,0)	(1,0)	(1,0)	(1,0)	(1,0)	(1,0)	
L1D 498>	(4,1)	(0,1)	(1,0)	(1,0)	(1,0)	(1,0)	(1,0)	(1,0)	(1,0)	(1,0)	(1,0)	(1,0)	(1,0)	(1,0)	(1,0)	(1,0)	
L1D 499>	(0,1)	(1,0)	(1,0)	(1,0)	(1,0)	(1,0)	(1,0)	(1,0)	(1,0)	(1,0)	(1,0)	(1,0)	(1,0)	(1,0)	(1,0)	(1,0)	
L1D 500>	(5,1)	(4,1)	(1,0)	(1,0)	(1,0)	(1,0)	(1,0)	(1,0)	(1,0)	(1,0)	(1,0)	(1,0)	(1,0)	(1,0)	(1,0)	(1,0)	
L1D 501>	(-491,1)	(1,1)	(4,1)	(1,0)	(1,0)	(1,0)	(1,0)	(1,0)	(1,0)	(1,0)	(1,0)	(1,0)	(1,0)	(1,0)	(1,0)	(1,0)	
L1D 502>	(-10,1)	(2,1)	(0,1)	(1,0)	(1,0)	(1,0)	(1,0)	(1,0)	(1,0)	(1,0)	(1,0)	(1,0)	(1,0)	(1,0)	(1,0)	(1,0)	
L1D 503>	(4,1)	(1,0)	(1,0)	(1,0)	(1,0)	(1,0)	(1,0)	(1,0)	(1,0)	(1,0)	(1,0)	(1,0)	(1,0)	(1,0)	(1,0)	(1,0)	
L1D 504>	(1,0)	(1,0)	(1,0)	(1,0)	(1,0)	(1,0)	(1,0)	(1,0)	(1,0)	(1,0)	(1,0)	(1,0)	(1,0)	(1,0)	(1,0)	(1,0)	
L1D 505>	(1,0)	(1,0)	(1,0)	(1,0)	(1,0)	(1,0)	(1,0)	(1,0)	(1,0)	(1,0)	(1,0)	(1,0)	(1,0)	(1,0)	(1,0)	(1,0)	
L1D 506>	(1,0)	(1,0)	(1,0)	(1,0)	(1,0)	(1,0)	(1,0)	(1,0)	(1,0)	(1,0)	(1,0)	(1,0)	(1,0)	(1,0)	(1,0)	(1,0)	
L1D 507>	(1,0)	(1,0)	(1,0)	(1,0)	(1,0)	(1,0)	(1,0)	(1,0)	(1,0)	(1,0)	(1,0)	(1,0)	(1,0)	(1,0)	(1,0)	(1,0)	
L1D 508>	(1,0)	(1,0)	(1,0)	(1,0)	(1,0)	(1,0)	(1,0)	(1,0)	(1,0)	(1,0)	(1,0)	(1,0)	(1,0)	(1,0)	(1,0)	(1,0)	
L1D 509>	(1,0)	(1,0)	(1,0)	(1,0)	(1,0)	(1,0)	(1,0)	(1,0)	(1,0)	(1,0)	(1,0)	(1,0)	(1,0)	(1,0)	(1,0)	(1,0)	
L1D 510>	(0,2)	(1,0)	(1,0)	(1,0)	(1,0)	(1,0)	(1,0)	(1,0)	(1,0)	(1,0)	(1,0)	(1,0)	(1,0)	(1,0)	(1,0)	(1,0)	
L1D 511>	(1,0)	(1,0)	(1,0)	(1,0)	(1,0)	(1,0)	(1,0)	(1,0)	(1,0)	(1,0)	(1,0)	(1,0)	(1,0)	(1,0)	(1,0)	(1,0)	

L2C -64>	(1,196)	(-1,54)	(4,29)	(2,39)	(0,29)	(-3,24)	(5,7)	(3,20)	(7,11)	(13,1)	(-5,190)	(-6,79)	(-4,29)	(16,26)	(-7,13)	(-2,33)	
L2C -63>	(0,1)	(18,2)	(1,9)	(4,2)	(13,3)	(11,1)	(50,2)	(14,1)	(44,1)	(9,1)	(47,4)	(8,1)	(41,2)	(51,1)	(55,1)	(1,0)	
L2C -62>	(26,2)	(1,27)	(-1,1)	(14,1)	(13,2)	(47,1)	(43,2)	(8,1)	(57,1)	(12,1)	(42,1)	(11,1)	(30,1)	(55,1)	(34,1)	(10,2)	
L2C -61>	(13,2)	(12,1)	(33,1)	(1,18)	(42,2)	(44,1)	(58,1)	(-1,2)	(8,1)	(11,1)	(43,1)	(48,1)	(15,1)	(6,1)	(1,0)	(1,0)	
L2C -60>	(1,9)	(44,1)	(2,3)	(18,2)	(6,1)	(35,1)	(0,1)	(15,1)	(-1,1)	(-3,1)	(57,1)	(9,1)	(45,1)	(16,1)	(46,1)	(34,1)	
L2C -59>	(1,16)	(3,3)	(42,3)	(46,3)	(9,1)	(61,1)	(45,2)	(2,1)	(7,2)	(15,1)	(13,3)	(6,2)	(52,1)	(51,1)	(14,1)	(49,1)	
L2C -58>	(-2,2)	(1,19)	(48,2)	(2,3)	(11,1)	(0,4)	(9,1)	(3,3)	(-5,1)	(43,2)	(44,1)	(8,1)	(57,1)	(5,1)	(-1,2)	(16,1)	
L2C -57>	(1,19)	(58,6)	(15,2)	(33,1)	(0,1)	(2,2)	(42,1)	(25,1)	(8,2)	(43,1)	(14,1)	(50,1)	(62,1)	(44,1)	(-1,1)	(9,1)	
L2C -56>	(1,20)	(-4,1)	(2,4)	(48,3)	(49,2)	(47,1)	(38,1)	(8,3)	(51,1)	(9,6)	(10,2)	(-3,1)	(3,1)	(52,1)	(39,1)	(18,1)	
L2C -55>	(7,6)	(1,30)	(-2,2)	(8,4)	(-3,4)	(49,3)	(48,1)	(3,3)	(-1,2)	(2,3)	(19,1)	(50,4)	(34,1)	(-5,1)	(5,1)	(12,3)	
L2C -54>	(7,12)	(1,27)	(2,6)	(4,2)	(3,9)	(6,3)	(51,4)	(49,1)	(48,2)	(50,3)	(53,1)	(55,1)	(30,1)	(52,1)	(8,5)	(10,1)	
L2C -53>	(-3,3)	(1,36)	(-1,4)	(-5,4)	(54,5)	(3,1)	(-2,4)	(60,1)	(30,1)	(5,2)	(-7,1)	(48,6)	(52,3)	(55,4)	(26,1)	(49,9)	
L2C -52>	(5,12)	(1,71)	(2,8)	(51,13)	(-1,9)	(61,1)	(-4,1)	(7,5)	(45,3)	(48,5)	(53,5)	(9,4)	(43,1)	(46,2)	(6,3)	(14,4)	
L2C -51>	(-5,1)	(-1,9)	(1,59)	(47,2)	(52,13)	(22,1)	(18,4)	(-3,2)	(45,2)	(19,3)	(0,5)	(2,6)	(8,3)	(55,1)	(14,4)	(51,3)	
L2C -50>	(1,71)	(2,6)	(-5,3)	(4,3)	(9,2)	(50,4)	(-4,2)	(-7,2)	(11,1)	(-1,18)	(49,3)	(7,2)	(45,2)	(51,3)	(46,2)	(3,8)	
L2C -49>	(1,60)	(21,2)	(19,2)	(-3,1)	(24,1)	(49,4)	(-1,7)	(54,1)	(0,2)	(2,13)	(16,1)	(46,2)	(3,1)	(5,1)	(50,2)	(12,2)	
L2C -48>	(-1,6)	(16,3)	(17,1)	(48,5)	(44,1)	(1,99)	(24,1)	(-9,3)	(49,3)	(51,2)	(50,3)	(9,2)	(2,5)	(13,2)	(23,1)	(43,1)	
L2C -47>	(1,99)	(14,7)	(48,2)	(19,2)	(47,4)	(15,6)	(2,7)	(10,1)	(43,3)	(4,2)	(27,1)	(3,11)	(7,3)	(49,5)	(20,3)	(-5,3)	
L2C -46>	(1,61)	(48,3)	(9,7)	(14,2)	(41,2)	(49,1)	(29,2)	(18,1)	(45,2)	(-5,2)	(43,2)	(-17,4)	(8,3)	(-11,1)	(38,3)	(42,1)	
L2C -45>	(46,3)	(1,49)	(-1,7)	(9,2)	(31,1)	(7,7)	(45,1)	(-5,1)	(11,6)	(-2,3)	(12,4)	(3,6)	(39,1)	(10,2)	(14,1)	(2,8)	
L2C -44>	(43,5)	(1,79)	(44,22)	(2,21)	(45,4)	(10,2)	(7,6)	(47,2)	(5,2)	(24,1)	(6,1)	(18,2)	(28,2)	(0,4)	(30,5)	(-13,1)	
L2C -43>	(3,4)	(1,64)	(41,8)	(42,5)	(4,2)	(2,10)	(-1,8)	(44,23)	(15,4)	(14,2)	(48,1)	(-8,1)	(55,1)	(18,2)	(-6,1)	(45,4)	
L2C -42>	(2,15)	(5,2)	(9,1)	(1,49)	(24,4)	(43,15)	(-9,2)	(21,3)	(-4,2)	(23,1)	(3,5)	(40,12)	(4,3)	(16,2)	(-1,21)	(7,2)	
L2C -41>	(25,1)	(34,2)	(1,44)	(-1,7)	(7,3)	(43,1)	(13,2)	(21,1)	(9,1)	(3,8)	(-11,2)	(30,1)	(33,1)	(42,8)	(14,4)	(2,12)	
L2C -40>	(4,3)	(1,60)	(53,5)	(2,17)	(51,2)	(3,4)	(33,7)	(40,6)	(-1,11)	(52,3)	(7,4)	(5,1)	(48,1)	(8,2)	(49,2)	(11,2)	
L2C -39>	(1,74)	(5,2)	(3,9)	(33,29)	(2,18)	(-1,4)	(51,10)	(29,1)	(34,3)	(39,22)	(49,2)	(52,14)	(-2,1)	(-15,2)	(53,3)	(0,21)	
L2C -38>	(1,70)	(33,31)	(3,10)	(34,3)	(0,11)	(39,3)	(-3,5)	(2,16)	(-1,9)	(21,1)	(52,7)	(-14,2)	(51,17)	(43,3)	(-11,2)	(41,3)	
L2C -37>	(1,34)	(40,9)	(19,2)	(11,1)	(2,18)	(38,3)	(41,1)	(52,1)	(3,30)	(17,1)	(0,3)	(24,1)	(33,3)	(-1,19)	(18,2)	(20,1)	
L2C -36>	(3,28)	(1,41)	(52,1)	(30,2)	(2,26)	(-5,1)	(31,2)	(24,7)	(-1,6)	(4,3)	(33,1)	(-17,1)	(14,2)	(18,5)	(37,3)	(25,2)	
L2C -35>	(28,5)	(1,57)	(-21,1)	(35,2)	(36,2)	(2,32)	(14,2)	(10,4)	(-12,1)	(-9,1)	(0,31)	(3,21)	(-2,1)	(48,2)	(34,4)	(18,1)	
L2C -34>	(1,66)	(18,2)	(11,1)	(-1,8)	(30,1)	(2,36)	(0,7)	(3,31)	(33,3)	(4,7)	(7,2)	(36,4)	(35,3)	(5,2)	(41,2)	(29,7)	
L2C -33>	(-1,6)	(12,1)	(26,2)	(-5,4)	(1,57)	(2,37)	(44,2)	(4,2)	(3,41)	(33,33)	(0,6)	(13,2)	(19,1)	(35,1)	(53,2)	(32,1)	
L2C -32>	(10,5)	(43,1)	(30,2)	(1,55)	(18,1)	(2,58)	(6,2)	(-1,19)	(4,1)	(11,10)	(3,58)	(24,5)	(-12,1)	(0,8)	(31,4)	(27,2)	
L2C -31>	(1,98)	(2,50)	(42,2)	(10,5)	(24,1)	(32,5)	(35,4)	(-1,13)	(38,2)	(3,28)	(36,2)	(41,1)	(-3,3)	(48,3)	(33,3)	(-16,2)	
L2C -30>	(40,1)	(2,30)	(18,1)	(10,5)	(1,67)	(-1,11)	(3,29)	(35,1)	(28,1)	(48,3)	(47,2)	(-9,1)	(-2,1)	(0,6)	(38,1)	(43,2)	
L2C -29>	(1,82)	(-15,2)	(30,10)	(18,2)	(19,4)	(31,2)	(2,18)	(15,3)	(-1,2)	(51,2)	(23,4)	(0,4)	(27,1)	(3,8)	(32,3)	(45,1)	
L2C -28>	(-2,4)	(2,49)	(29,7)	(-5,1)	(-32,1)	(1,58)	(6,3)	(-4,2)	(0,59)	(3,24)	(-3,2)	(33,3)	(-1,58)	(40,1)	(17,2)	(45,1)	
L2C -27>	(1,88)	(18,3)	(-2,5)	(-1,15)	(3,28)	(2,76)	(0,4)	(-12,2)	(12,7)	(43,6)	(28,1)	(13,5)	(40,1)	(5,1)	(-17,5)	(21,5)	
L2C -26>	(7,22)	(27,6)	(2,24)	(1,93)	(22,4)	(52,1)	(4,17)	(3,19)	(11,6)	(23,2)	(10,4)	(-1,16)	(19,5)	(17,4)	(6,3)	(14,4)	
L2C -25>	(1,74)	(12,3)	(2,9)	(27,4)	(14,4)	(-3,2)	(26,14)	(-31,3)	(7,2)	(9,1)	(-2,3)	(-9,1)	(-18,2)	(-1,14)	(24,2)	(5,5)	
L2C -24>	(1,63)	(23,2)	(2,19)	(8,1)	(21,4)	(43,2)	(12,3)	(-8,3)	(25,12)	(-18,2)	(-1,14)	(26,3)	(10,6)	(-34,2)	(-4,2)	(7,3)	
L2C -23>	(19,2)	(14,5)	(1,108)	(2,9)	(25,7)	(6,5)	(17,5)	(36,4)	(12,4)	(24,1)	(-3,3)	(37,1)	(-1,13)	(4,4)	(35,5)	(10,4)	
L2C -22>	(1,83)	(23,19)	(3,7)	(15,3)	(13,10)	(21,17)	(4,7)	(-2,4)	(24,3)	(25,8)	(17,6)	(-1,3)	(0,5)	(10,1)	(2,12)	(51,3)	
L2C -21>	(3,20)	(-14,1)	(14,4)	(23,10)	(1,122)	(12,3)	(0,4)	(-2,6)	(6,5)	(22,13)	(13,3)	(30,3)	(-28,2)	(7,3)	(2,10)	(-1,59)	
L2C -20>	(-1,21)	(-16,1)	(10,10)	(-2,10)	(-9,2)	(4,5)	(1,119)	(3,17)	(2,70)	(-19,2)	(6,5)	(12,5)	(14,5)	(-28,2)	(13,12)	(24,2)	
L2C -19>	(48,1)	(14,9)	(1,110)	(21,7)	(3,16)	(29,2)	(20,15)	(-5,5)	(12,9)	(10,20)	(18,8)	(7,5)	(9,10)	(11,35)	(13,25)	(2,19)	
L2C -18>	(1,175)	(2,15)	(3,10)	(-2,112)	(18,5)	(4,8)	(19,9)	(-1,9)	(32,7)	(-24,1)	(0,4)	(23,5)	(16,16)	(8,5)	(13,3)	(6,2)	
L2C -17>	(12,2)	(1,218)	(-39,1)	(3,9)	(6,1)	(2,11)	(-33,1)	(-1,3)	(45,1)	(11,1)	(0,1)	(20,1)	(8,2)	(13,5)	(16,2)	(18,1)	
L2C -16>	(1,226)	(23,1)	(-37,1)	(21,3)	(17,7)	(2,29)	(3,13)	(-17,1)	(14,4)	(0,11)	(25,1)	(5,1)	(9,4)	(16,12)	(18,8)	(11,1)	
L2C -15>	(2,4)	(1,167)	(-12,1)	(-3,1)	(-6,1)	(5,1)	(12,1)	(-1,1)	(22,0)	(16,1)	(-9,0)	(3,1)	(14,1)	(-8,0)	(-7,0)	(26,0)	
L2C -14>	(2,19)	(15,18)	(-7,3)	(6,4)	(11,9)	(1,246)	(16,5)	(13,9)	(-5,4)	(-11,6)	(21,1)	(3,9)	(12,6)	(9,3)	(27,2)	(7,4)	
L2C -13>	(-1,5)	(5,2)	(14,24)	(3,8)	(1,192)	(7,10)	(10,5)	(16,3)	(17,3)	(2,40)	(-6,4)	(-7,8)	(-43,1)	(12,1)	(18,4)	(13,4)	
L2C -12>	(1,245)	(13,20)	(2,21)	(7,9)	(4,5)	(-4,3)	(5,1)	(12,4)	(11,6)	(15,2)	(-2,5)	(-3,7)	(28,5)	(17,5)	(9,3)	(3,21)	
L2C -11>	(12,87)	(13,14)	(1,184)	(-1,30)	(24,13)	(2,47)	(4,6)	(5,1)	(22,7)	(-11,4)	(21,9)	(10,16)	(-18,5)	(19,12)	(9,15)	(-15,3)	
L2C -10>	(3,18)	(1,255)	(11,48)	(2,31)	(-5,2)	(4,8)	(-16,4)	(15,21)	(9,10)	(7,71)	(25,3)	(54,2)	(-1,74)	(8,19)	(5,73)	(0,50)	
L2C -9>	(5,3)	(0,4)	(-27,13)	(2,19)	(1,143)	(-1,15)	(-10,6)	(3,19)	(11,5)	(-5,2)	(4,3)	(12,19)	(10,12)	(-2,3)	(16,5)	(7,1)	
L2C -8>	(1,155)	(11,13)	(8,1)	(0,11)	(2,35)	(9,14)	(-1,15)	(-12,2)	(-48,1)	(3,9)	(-31,1)	(-2,3)	(-9,2)	(10,1)	(32,1)	(24,4)	
L2C -7>	(1,145)	(2,90)	(7,1)	(-2,8)	(-1,27)	(3,51)	(-6,5)	(-3,45)	(5,15)	(11,4)	(8,63)	(6,5)	(0,29)	(-10,4)	(-5,2)	(9,7)	
L2C -6>	(1,165)	(7,85)	(4,6)	(2,55)	(-1,112)	(0,54)	(22,46)	(6,13)	(3,39)	(12,1)	(-3,15)	(-7,2)	(-2,5)	(-4,23)	(5,26)	(13,4)	
L2C -5>	(1,135)	(0,235)	(6,10)	(-3,6)	(-1,59)	(21,1)	(2,13)	(5,2)	(-19,1)	(7,3)	(-2,3)	(-11,2)	(3,9)	(20,2)	(8,2)	(-4,1)	
L2C -4>	(1,169)	(2,23)	(-3,2)	(13,3)	(0,56)	(4,1)	(5,38)	(6,8)	(-27,8)	(7,2)	(-2,5)	(-6,3)	(-1,100)	(3,12)	(-10,1)	(12,2)	
L2C -3>	(1,142)	(6,3)	(2,24)	(0,72)	(-1,35)	(-2,6)	(-3,3)	(-4,2)	(7,1)	(4,14)	(8,2)	(5,7)	(-10,3)	(20,1)	(3,14)	(11,1)	
L2C -2>	(-2,4)	(1,180)	(2,83)	(5,9)	(4,12)	(0,44)	(-1,26)	(3,57)	(-11,5)	(6,5)	(8,9)	(-8,1)	(7,2)	(-4,5)	(-3,7)	(-46,2)	
L2C -1>	(2,141)	(3,24)	(-14,1)	(-8,2)	(0,56)	(-1,41)	(1,89)	(4,3)	(24,1)	(8,1)	(-16,1)	(-10,2)	(-2,5)	(-12,6)	(17,1)	(-56,1)	
L2C 0>	(1,23)	(-44,1)	(-1,69)	(0,186)	(16,1)	(2,4)	(-3,1)	(5,1)	(-45,1)	(39,1)	(-2,0)	(3,2)	(6,0)	(-16,0)	(-6,0)	(-15,0)	
L2C 1>	(1,212)	(-6,6)	(2,7)	(-26,2)	(3,2)	(0,8)	(-5,2)	(-1,8)	(-13,1)	(-7,2)	(-2,3)	(21,2)	(14,4)	(-4,1)	(-10,2)	(-33,1)	
L2C 2>	(1,181)	(19,2)	(-8,1)	(-1,81)	(-2,16)	(-23,1)	(0,2)	(18,14)	(26,1)	(9,1)	(2,11)	(3,4)	(-3,2)	(-4,1)	(-6,2)	(4,2)	
L2C 3>	(1,237)	(-2,48)	(-1,66)	(-14,3)	(2,17)	(19,28)	(-11,1)	(-57,1)	(-10,8)	(3,3)	(18,29)	(-4,7)	(12,2)	(-6,7)	(9,2)	(-3,11)	
L2C 4>	(1,216)	(0,13)	(-6,4)	(8,4)	(-48,1)	(-2,18)	(9,5)	(-5,10)	(-15,6)	(2,29)	(-3,50)	(-7,6)	(-1,39)	(3,9)	(-17,4)	(-4,8)	
L2C 5>	(0,15)	(-11,4)	(1,155)	(-4,19)	(-5,8)	(2,39)	(18,5)	(-1,19)	(-6,14)	(-22,1)	(7,8)	(3,12)	(-3,20)	(-7,4)	(4,6)	(-13,3)	
L2C 6>	(-6,10)	(1,233)	(2,23)	(-4,11)	(-2,3)	(3,21)	(-8,1)	(-5,36)	(7,10)	(-1,30)	(-3,8)	(24,1)	(-9,8)	(-7,4)	(18,4)	(5,5)	
L2C 7>	(1,225)	(0,7)	(-6,29)	(-3,6)	(-1,34)	(15,2)	(-8,8)	(3,16)	(2,25)	(7,31)	(-10,2)	(-4,9)	(5,1)	(-9,16)	(-2,4)	(-7,6)	
L2C 8>	(1,234)	(-9,9)	(-1,31)	(-8,42)	(-4,9)	(-5,4)	(2,31)	(13,3)	(10,6)	(3,12)	(0,12)	(-6,33)	(8,8)	(-7,16)	(-3,8)	(24,1)	
L2C 9>	(1,150)	(-10,34)	(-5,7)	(-2,10)	(3,11)	(-3,2)	(4,7)	(-4,6)	(-1,15)	(2,21)	(14,1)	(-7,11)	(12,7)	(0,3)	(7,3)	(-11,6)	
L2C 10>	(2,38)	(1,179)	(14,6)	(-1,36)	(-8,7)	(-9,21)	(-13,6)	(-11,8)	(-4,3)	(-2,15)	(22,1)	(-7,5)	(-21,2)	(-5,15)	(-6,9)	(4,7)	
L2C 11>	(-5,2)	(-3,5)	(2,15)	(-13,11)	(-1,99)	(4,1)	(1,129)	(-2,4)	(-10,1)	(-7,2)	(-11,3)	(14,2)	(-22,4)	(11,9)	(-21,1)	(3,6)	
L2C 12>	(-1,19)	(-7,6)	(1,137)	(3,4)	(-11,28)	(-6,6)	(-19,2)	(-21,1)	(6,2)	(-5,6)	(-23,1)	(-13,43)	(14,1)	(27,1)	(2,34)	(-16,1)	
L2C 13>	(-12,24)	(-5,11)	(2,14)	(1,230)	(-1,18)	(-20,3)	(-6,13)	(-51,1)	(-17,7)	(-10,18)	(-3,3)	(-14,11)	(-2,6)	(-13,9)	(-24,4)	(3,10)	
L2C 14>	(1,138)	(-27,1)	(-1,85)	(2,12)	(-15,3)	(-13,168)	(3,8)	(-4,21)	(-6,4)	(-18,2)	(9,1)	(-2,5)	(7,2)	(-12,2)	(-5,3)	(-11,2)	
L2C 15>	(2,31)	(1,174)	(-13,48)	(-4,14)	(-14,90)	(-17,6)	(-16,7)	(-2,18)	(3,12)	(39,1)	(0,5)	(6,4)	(-12,7)	(-5,18)	(-1,40)	(-8,3)	
L2C 16>	(-15,209)	(1,32)	(-14,3)	(-58,1)	(-13,2)	(-17,3)	(2,7)	(-11,1)	(-16,14)	(-9,1)	(-12,1)	(-4,1)	(-20,1)	(0,1)	(-1,6)	(-44,2)	
L2C 17>	(1,146)	(-16,109)	(-17,22)	(0,5)	(-35,7)	(-34,8)	(-15,10)	(4,3)	(-2,13)	(-5,1)	(-23,2)	(-42,2)	(-1,24)	(10,4)	(-14,10)	(2,10)	
L2C 18>	(-17,199)	(-10,2)	(1,26)	(-16,3)	(-21,1)	(-18,4)	(-15,4)	(2,4)	(-1,3)	(-25,1)	(-5,1)	(-28,1)	(7,1)	(3,2)	(-36,1)	(6,1)	
L2C 19>	(-18,196)	(3,6)	(2,5)	(1,64)	(-46,1)	(-20,6)	(18,1)	(-15,4)	(-29,1)	(-19,4)	(-9,1)	(-17,10)	(-16,15)	(-1,14)	(-14,3)	(-13,3)	
L2C 20>	(1,109)	(-1,16)	(-13,57)	(-16,11)	(-9,6)	(-19,8)	(-15,12)	(-26,10)	(-18,35)	(-12,6)	(-17,104)	(-35,1)	(2,12)	(-3,2)	(6,3)	(-14,4)	
L2C 21>	(-16,11)	(1,135)	(-15,11)	(-20,12)	(2,34)	(-13,10)	(-22,8)	(-1,33)	(4,11)	(-9,7)	(0,1)	(-3,2)	(14,3)	(3,18)	(-17,4)	(-32,2)	
L2C 22>	(1,133)	(12,3)	(-12,6)	(-15,201)	(-20,4)	(3,17)	(-1,41)	(-25,1)	(-21,16)	(-16,8)	(-3,4)	(11,3)	(-27,6)	(4,3)	(2,16)	(16,2)	
L2C 23>	(-28,4)	(1,141)	(-1,28)	(2,27)	(22,1)	(-16,12)	(-15,9)	(-5,6)	(-22,7)	(6,3)	(-42,2)	(-13,8)	(3,12)	(-6,2)	(-21,8)	(-2,5)	
L2C 24>	(-16,13)	(1,135)	(-1,32)	(-5,6)	(18,1)	(2,13)	(12,5)	(4,4)	(-23,17)	(-33,5)	(3,14)	(-20,6)	(10,2)	(-13,9)	(-22,2)	(-11,5)	
L2C 25>	(1,129)	(-24,7)	(-13,1)	(-1,41)	(18,9)	(14,4)	(-14,3)	(-15,9)	(-11,3)	(-34,3)	(3,11)	(-5,4)	(4,7)	(-17,9)	(-16,6)	(-9,3)	
L2C 26>	(1,101)	(-2,23)	(-16,5)	(-6,5)	(3,17)	(2,9)	(-13,14)	(-5,6)	(-30,1)	(-4,6)	(-1,43)	(-25,7)	(-17,4)	(-24,4)	(-21,5)	(17,3)	
L2C 27>	(-1,32)	(2,10)	(1,94)	(-2,5)	(-33,5)	(-5,8)	(-26,10)	(-3,7)	(3,10)	(-21,4)	(-22,4)	(15,2)	(-28,1)	(-6,5)	(5,5)	(-4,4)	
L2C 28>	(-12,2)	(1,117)	(2,15)	(-1,33)	(-3,3)	(-26,5)	(3,4)	(-17,4)	(-22,2)	(-5,6)	(-18,6)	(7,1)	(-9,2)	(-29,2)	(4,4)	(-34,1)	
L2C 29>	(-5,5)	(1,97)	(-12,2)	(-1,41)	(2,19)	(-27,4)	(16,3)	(-15,2)	(-28,8)	(-39,2)	(-34,2)	(10,1)	(-2,4)	(3,11)	(-50,1)	(-32,1)	
L2C 30>	(-2,9)	(1,125)	(2,12)	(3,11)	(-29,5)	(14,2)	(-1,23)	(6,5)	(-27,4)	(-21,4)	(-33,2)	(-28,7)	(-32,3)	(-20,2)	(-25,2)	(-34,1)	
L2C 31>	(1,64)	(3,12)	(-30,2)	(-2,2)	(-29,4)	(-5,6)	(-1,18)	(-41,3)	(-28,2)	(-19,2)	(-51,2)	(7,1)	(-47,2)	(-42,1)	(2,15)	(-9,1)	
L2C 32>	(3,15)	(1,71)	(-22,4)	(7,2)	(-33,2)	(-30,4)	(-31,10)	(-1,18)	(2,14)	(-45,3)	(-20,2)	(-48,3)	(-32,2)	(8,2)	(-12,1)	(5,2)	
L2C 33>	(-7,1)	(7,1)	(1,146)	(-26,4)	(6,2)	(-32,8)	(-51,3)	(-34,1)	(-30,6)	(-16,1)	(2,22)	(3,14)	(-4,5)	(-25,2)	(-1,21)	(4,2)	
L2C 34>	(3,6)	(1,84)	(-35,3)	(2,18)	(-1,17)	(-11,7)	(-34,3)	(-31,5)	(8,2)	(-12,1)	(5,4)	(-6,1)	(-33,10)	(-27,3)	(-20,1)	(-48,2)	
L2C 35>	(-14,1)	(1,70)	(-17,1)	(-1,18)	(2,16)	(-37,1)	(8,1)	(-52,3)	(-34,2)	(-4,5)	(-36,9)	(7,1)	(3,7)	(-42,1)	(-33,2)	(-35,2)	
L2C 36>	(-1,11)	(-35,4)	(1,58)	(11,4)	(-31,4)	(3,5)	(8,2)	(2,10)	(-9,2)	(-12,2)	(-30,2)	(-41,1)	(-32,1)	(-20,1)	(19,1)	(-15,2)	
L2C 37>	(0,8)	(1,56)	(-36,3)	(2,12)	(-38,6)	(-27,2)	(-1,7)	(19,2)	(-13,2)	(3,8)	(-18,1)	(-39,6)	(12,1)	(-43,2)	(-24,1)	(-15,2)	
L2C 38>	(1,45)	(3,4)	(-29,1)	(-22,2)	(-4,3)	(-1,23)	(-17,17)	(2,12)	(-39,4)	(-37,4)	(-9,1)	(-45,3)	(-2,1)	(-12,3)	(-49,2)	(-13,2)	
L2C 39>	(1,33)	(-38,5)	(2,11)	(-39,52)	(-1,7)	(-4,1)	(-37,1)	(-28,1)	(0,8)	(-50,2)	(-27,1)	(-13,3)	(-40,5)	(-31,1)	(3,4)	(4,3)	
L2C 40>	(1,84)	(-39,5)	(-33,3)	(-40,3)	(2,17)	(-1,10)	(-48,1)	(4,2)	(-9,1)	(-53,1)	(3,6)	(-32,2)	(-38,2)	(-3,5)	(-26,2)	(0,10)	
L2C 41>	(-39,2)	(1,41)	(2,11)	(-38,19)	(0,6)	(-9,1)	(-41,3)	(-51,1)	(-12,1)	(-47,1)	(3,5)	(8,2)	(-1,7)	(-42,4)	(-24,2)	(-17,2)	
L2C 42>	(1,47)	(-3,2)	(-17,3)	(-1,4)	(2,7)	(-41,6)	(4,7)	(-36,1)	(-43,7)	(-32,1)	(0,8)	(-39,2)	(-7,2)	(-38,3)	(-16,1)	(3,5)	
L2C 43>	(1,53)	(-25,2)	(-1,6)	(-44,4)	(-52,1)	(-47,1)	(-42,12)	(-3,1)	(-33,1)	(-60,2)	(-22,8)	(0,3)	(-51,2)	(3,6)	(2,10)	(-16,6)	
L2C 44>	(3,2)	(-1,17)	(1,75)	(0,10)	(-14,6)	(2,9)	(-21,2)	(-8,1)	(-4,3)	(-29,1)	(-44,11)	(-20,3)	(-33,4)	(-27,3)	(-43,11)	(-31,1)	
L2C 45>	(1,52)	(-44,6)	(-1,6)	(3,5)	(-34,1)	(6,3)	(-4,2)	(-52,2)	(2,5)	(-6,2)	(-39,2)	(-51,2)	(-46,2)	(-48,2)	(-23,1)	(-9,2)	
L2C 46>	(2,15)	(1,29)	(-47,3)	(-1,1)	(3,8)	(-38,1)	(-45,7)	(-41,1)	(7,1)	(-26,1)	(-35,1)	(11,2)	(-33,2)	(-52,4)	(-34,2)	(13,2)	
L2C 47>	(-47,8)	(-1,7)	(-54,4)	(-46,9)	(1,59)	(-20,2)	(3,1)	(-52,4)	(-51,2)	(-48,1)	(-3,2)	(-49,6)	(-42,2)	(-23,1)	(-50,13)	(2,10)	
L2C 48>	(1,42)	(2,5)	(-51,7)	(-34,3)	(-2,3)	(-47,10)	(-50,15)	(-53,4)	(-29,2)	(3,5)	(-54,5)	(-45,1)	(8,1)	(-31,2)	(-52,6)	(7,1)	
L2C 49>	(1,33)	(-48,12)	(-51,1)	(-53,13)	(-34,2)	(-55,6)	(3,12)	(2,7)	(-33,3)	(-42,3)	(-45,3)	(-46,3)	(-54,4)	(-47,4)	(-12,1)	(0,2)	
L2C 50>	(1,26)	(-49,14)	(-53,2)	(-26,2)	(4,1)	(-63,1)	(2,17)	(3,9)	(-61,1)	(-54,4)	(-9,1)	(-51,2)	(-42,2)	(-24,1)	(-44,2)	(-50,2)	
L2C 51>	(-17,1)	(1,21)	(2,8)	(-52,13)	(-43,2)	(-62,1)	(3,5)	(-3,2)	(-51,3)	(-38,5)	(-41,2)	(-57,1)	(-42,1)	(-50,13)	(-18,20)	(-48,3)	
L2C 52>	(-50,3)	(-41,2)	(-53,3)	(1,25)	(-56,2)	(-57,12)	(-48,2)	(3,3)	(2,5)	(-19,11)	(-52,1)	(-51,5)	(-55,2)	(-63,1)	(-22,1)	(0,1)	
L2C 53>	(1,22)	(-60,1)	(-24,1)	(-61,1)	(2,10)	(-1,3)	(-20,2)	(-51,2)	(-47,2)	(-50,3)	(3,3)	(-41,2)	(-34,1)	(-13,1)	(4,1)	(-52,2)	
L2C 54>	(-1,5)	(4,1)	(-63,1)	(-34,1)	(2,2)	(1,15)	(-50,1)	(-51,2)	(-49,1)	(-46,2)	(0,3)	(-20,1)	(-13,1)	(3,3)	(7,1)	(-41,1)	
L2C 55>	(2,5)	(1,10)	(-1,9)	(-47,1)	(-48,2)	(-40,1)	(-18,1)	(3,10)	(-23,1)	(0,1)	(-52,1)	(-53,1)	(-22,1)	(-50,1)	(-16,1)	(-19,1)	
L2C 56>	(1,6)	(-52,6)	(-32,1)	(-47,1)	(-44,1)	(-1,5)	(-22,1)	(-42,1)	(-53,1)	(2,2)	(-57,2)	(-51,2)	(3,1)	(-19,1)	(1,0)	(1,0)	
L2C 57>	(-62,2)	(-15,1)	(-50,2)	(1,3)	(-1,3)	(0,3)	(-54,1)	(-48,1)	(-57,1)	(2,1)	(-22,1)	(1,0)	(1,0)	(1,0)	(1,0)	(1,0)	
L2C 58>	(1,6)	(-43,1)	(-1,1)	(-46,1)	(-18,1)	(-27,1)	(-52,1)	(-28,1)	(-58,4)	(-59,1)	(-55,1)	(-51,1)	(1,0)	(1,0)	(1,0)	(1,0)	
L2C 59>	(1,8)	(-1,1)	(-10,1)	(-39,1)	(-44,1)	(-37,1)	(1,0)	(1,0)	(1,0)	(1,0)	(1,0)	(1,0)	(1,0)	(1,0)	(1,0)	(1,0)	
L2C 60>	(1,4)	(-55,1)	(-10,1)	(-21,1)	(-61,1)	(-25,1)	(1,0)	(1,0)	(1,0)	(1,0)	(1,0)	(1,0)	(1,0)	(1,0)	(1,0)	(1,0)	
L2C 61>	(-30,1)	(1,1)	(-1,1)	(-28,1)	(-51,1)	(-53,1)	(-27,1)	(1,0)	(1,0)	(1,0)	(1,0)	(1,0)	(1,0)	(1,0)	(1,0)	(1,0)	
L2C 62>	(1,2)	(-11,1)	(-48,1)	(1,0)	(1,0)	(1,0)	(1,0)	(1,0)	(1,0)	(1,0)	(1,0)	(1,0)	(1,0)	(1,0)	(1,0)	(1,0)	
L2C 63>	(-62,1)	(-1,1)	(1,0)	(1,0)	(1,0)	(1,0)	(1,0)	(1,0)	(1,0)	(1,0)	(1,0)	(1,0)	(1,0)	(1,0)	(1,0)	(1,0)	

DRAM Statistics
 CHANNEL 0
 RQ ROW_BUFFER_HIT:     354778  ROW_BUFFER_MISS:     335297
 DBUS_CONGESTED:     504894
 WQ ROW_BUFFER_HIT:       4804  ROW_BUFFER_MISS:      57462  FULL:          0

 AVG_CONGESTED_CYCLE: 6
