
*** ChampSim Multicore Out-of-Order Simulator ***

Warmup Instructions: 1000000
Simulation Instructions: 10000000
Number of CPUs: 1
LLC sets: 2048
LLC ways: 16
Off-chip DRAM Size: 4096 MB Channels: 1 Width: 64-bit Data Rate: 3200 MT/s

CPU 0 runs /home/aniket/Desktop/sem/cs622/cs622-project/champsim/dpc3_traces/623.xalancbmk_s-700B.champsimtrace.xz
Ultra pref. initializing...
Ultra pref. initialized
Ultra pref. initializing...
Ultra pref. initialized

Warmup complete CPU 0 instructions: 1000002 cycles: 671322 (Simulation time: 0 hr 0 min 2 sec) 

Heartbeat CPU 0 instructions: 10000001 cycles: 24999691 heartbeat IPC: 0.400005 cumulative IPC: 0.369938 (Simulation time: 0 hr 0 min 35 sec) 
Finished CPU 0 instructions: 10000000 cycles: 26292131 cumulative IPC: 0.380342 (Simulation time: 0 hr 0 min 38 sec) 

CPU 0 Branch Prediction Accuracy: 99.3802% MPKI: 1.5948 Average ROB Occupancy at Mispredict: 164.661

ChampSim completed all CPUs

Region of Interest Statistics

CPU 0 cumulative IPC: 0.380342 instructions: 10000000 cycles: 26292131
L1D TOTAL     ACCESS:    5963925  HIT:    5122842  MISS:     841083
L1D LOAD      ACCESS:    1721086  HIT:    1358578  MISS:     362508
L1D RFO       ACCESS:     717875  HIT:     705262  MISS:      12613
L1D PREFETCH  ACCESS:    3524964  HIT:    3059002  MISS:     465962
L1D WRITEBACK ACCESS:          0  HIT:          0  MISS:          0
L1D PREFETCH  REQUESTED:   32198388  ISSUED:   28459085  USEFUL:     100670  USELESS:     406589
L1D AVERAGE MISS LATENCY: 181242 cycles
L1I TOTAL     ACCESS:    3858154  HIT:    3831244  MISS:      26910
L1I LOAD      ACCESS:    3858154  HIT:    3831244  MISS:      26910
L1I RFO       ACCESS:          0  HIT:          0  MISS:          0
L1I PREFETCH  ACCESS:          0  HIT:          0  MISS:          0
L1I WRITEBACK ACCESS:          0  HIT:          0  MISS:          0
L1I PREFETCH  REQUESTED:          0  ISSUED:          0  USEFUL:          0  USELESS:          0
L1I AVERAGE MISS LATENCY: 17.1631 cycles
L2C TOTAL     ACCESS:    3921721  HIT:    2203876  MISS:    1717845
L2C LOAD      ACCESS:     377920  HIT:     139978  MISS:     237942
L2C RFO       ACCESS:      12587  HIT:       5183  MISS:       7404
L2C PREFETCH  ACCESS:    3506595  HIT:    2034117  MISS:    1472478
L2C WRITEBACK ACCESS:      24619  HIT:      24598  MISS:         21
L2C PREFETCH  REQUESTED:   12395262  ISSUED:    7283892  USEFUL:      66834  USELESS:    1469627
L2C AVERAGE MISS LATENCY: 38.865 cycles
LLC TOTAL     ACCESS:    1737447  HIT:    1678691  MISS:      58756
LLC LOAD      ACCESS:     233962  HIT:     229855  MISS:       4107
LLC RFO       ACCESS:       7349  HIT:       1645  MISS:       5704
LLC PREFETCH  ACCESS:    1476511  HIT:    1427566  MISS:      48945
LLC WRITEBACK ACCESS:      19625  HIT:      19625  MISS:          0
LLC PREFETCH  REQUESTED:          0  ISSUED:          0  USEFUL:       2223  USELESS:      36526
LLC AVERAGE MISS LATENCY: 204.421 cycles
Major fault: 0 Minor fault: 2374

L1D -512>	(6,2)	(1,69)	(0,68)	(-422,1)	(-4,6)	(-7,2)	(5,15)	(2,102)	(-5,47)	(273,1)	(4,8)	(111,1)	(-201,1)	(-6,5)	(-1,2)	(16,1)	
L1D -511>	(2,35)	(1,42)	(6,3)	(10,1)	(8,6)	(4,1)	(1,0)	(1,0)	(1,0)	(1,0)	(1,0)	(1,0)	(1,0)	(1,0)	(1,0)	(1,0)	
L1D -510>	(2,92)	(1,1)	(6,37)	(8,91)	(14,0)	(4,13)	(5,2)	(10,2)	(7,0)	(18,0)	(3,0)	(1,0)	(1,0)	(1,0)	(1,0)	(1,0)	
L1D -509>	(1,0)	(1,0)	(1,0)	(1,0)	(1,0)	(1,0)	(1,0)	(1,0)	(1,0)	(1,0)	(1,0)	(1,0)	(1,0)	(1,0)	(1,0)	(1,0)	
L1D -508>	(8,12)	(2,12)	(6,15)	(5,2)	(10,1)	(4,3)	(1,0)	(1,0)	(1,0)	(1,0)	(1,0)	(1,0)	(1,0)	(1,0)	(1,0)	(1,0)	
L1D -507>	(501,1)	(1,0)	(1,0)	(1,0)	(1,0)	(1,0)	(1,0)	(1,0)	(1,0)	(1,0)	(1,0)	(1,0)	(1,0)	(1,0)	(1,0)	(1,0)	
L1D -506>	(6,1)	(7,1)	(2,4)	(5,1)	(1,0)	(1,0)	(1,0)	(1,0)	(1,0)	(1,0)	(1,0)	(1,0)	(1,0)	(1,0)	(1,0)	(1,0)	
L1D -505>	(14,9)	(9,2)	(1,0)	(1,0)	(1,0)	(1,0)	(1,0)	(1,0)	(1,0)	(1,0)	(1,0)	(1,0)	(1,0)	(1,0)	(1,0)	(1,0)	
L1D -504>	(31,3)	(8,48)	(4,16)	(6,35)	(14,31)	(2,80)	(18,0)	(5,2)	(1,1)	(10,5)	(7,0)	(3,0)	(1,0)	(1,0)	(1,0)	(1,0)	
L1D -503>	(1,0)	(1,0)	(1,0)	(1,0)	(1,0)	(1,0)	(1,0)	(1,0)	(1,0)	(1,0)	(1,0)	(1,0)	(1,0)	(1,0)	(1,0)	(1,0)	
L1D -502>	(2,1)	(1,0)	(1,0)	(1,0)	(1,0)	(1,0)	(1,0)	(1,0)	(1,0)	(1,0)	(1,0)	(1,0)	(1,0)	(1,0)	(1,0)	(1,0)	
L1D -501>	(1,0)	(1,0)	(1,0)	(1,0)	(1,0)	(1,0)	(1,0)	(1,0)	(1,0)	(1,0)	(1,0)	(1,0)	(1,0)	(1,0)	(1,0)	(1,0)	
L1D -500>	(8,1)	(1,0)	(1,0)	(1,0)	(1,0)	(1,0)	(1,0)	(1,0)	(1,0)	(1,0)	(1,0)	(1,0)	(1,0)	(1,0)	(1,0)	(1,0)	
L1D -499>	(15,1)	(1,0)	(1,0)	(1,0)	(1,0)	(1,0)	(1,0)	(1,0)	(1,0)	(1,0)	(1,0)	(1,0)	(1,0)	(1,0)	(1,0)	(1,0)	
L1D -498>	(2,1)	(1,0)	(1,0)	(1,0)	(1,0)	(1,0)	(1,0)	(1,0)	(1,0)	(1,0)	(1,0)	(1,0)	(1,0)	(1,0)	(1,0)	(1,0)	
L1D -497>	(31,98)	(0,1)	(1,0)	(1,0)	(1,0)	(1,0)	(1,0)	(1,0)	(1,0)	(1,0)	(1,0)	(1,0)	(1,0)	(1,0)	(1,0)	(1,0)	
L1D -496>	(6,1)	(1,0)	(1,0)	(1,0)	(1,0)	(1,0)	(1,0)	(1,0)	(1,0)	(1,0)	(1,0)	(1,0)	(1,0)	(1,0)	(1,0)	(1,0)	
L1D -495>	(1,0)	(1,0)	(1,0)	(1,0)	(1,0)	(1,0)	(1,0)	(1,0)	(1,0)	(1,0)	(1,0)	(1,0)	(1,0)	(1,0)	(1,0)	(1,0)	
L1D -494>	(8,1)	(1,0)	(1,0)	(1,0)	(1,0)	(1,0)	(1,0)	(1,0)	(1,0)	(1,0)	(1,0)	(1,0)	(1,0)	(1,0)	(1,0)	(1,0)	
L1D -493>	(2,1)	(1,0)	(1,0)	(1,0)	(1,0)	(1,0)	(1,0)	(1,0)	(1,0)	(1,0)	(1,0)	(1,0)	(1,0)	(1,0)	(1,0)	(1,0)	
L1D -492>	(8,1)	(1,0)	(1,0)	(1,0)	(1,0)	(1,0)	(1,0)	(1,0)	(1,0)	(1,0)	(1,0)	(1,0)	(1,0)	(1,0)	(1,0)	(1,0)	
L1D -491>	(1,0)	(1,0)	(1,0)	(1,0)	(1,0)	(1,0)	(1,0)	(1,0)	(1,0)	(1,0)	(1,0)	(1,0)	(1,0)	(1,0)	(1,0)	(1,0)	
L1D -490>	(2,1)	(1,0)	(1,0)	(1,0)	(1,0)	(1,0)	(1,0)	(1,0)	(1,0)	(1,0)	(1,0)	(1,0)	(1,0)	(1,0)	(1,0)	(1,0)	
L1D -489>	(2,1)	(1,0)	(1,0)	(1,0)	(1,0)	(1,0)	(1,0)	(1,0)	(1,0)	(1,0)	(1,0)	(1,0)	(1,0)	(1,0)	(1,0)	(1,0)	
L1D -488>	(8,1)	(1,0)	(1,0)	(1,0)	(1,0)	(1,0)	(1,0)	(1,0)	(1,0)	(1,0)	(1,0)	(1,0)	(1,0)	(1,0)	(1,0)	(1,0)	
L1D -487>	(1,0)	(1,0)	(1,0)	(1,0)	(1,0)	(1,0)	(1,0)	(1,0)	(1,0)	(1,0)	(1,0)	(1,0)	(1,0)	(1,0)	(1,0)	(1,0)	
L1D -486>	(8,1)	(1,0)	(1,0)	(1,0)	(1,0)	(1,0)	(1,0)	(1,0)	(1,0)	(1,0)	(1,0)	(1,0)	(1,0)	(1,0)	(1,0)	(1,0)	
L1D -485>	(1,0)	(1,0)	(1,0)	(1,0)	(1,0)	(1,0)	(1,0)	(1,0)	(1,0)	(1,0)	(1,0)	(1,0)	(1,0)	(1,0)	(1,0)	(1,0)	
L1D -484>	(2,1)	(494,1)	(4,1)	(1,0)	(1,0)	(1,0)	(1,0)	(1,0)	(1,0)	(1,0)	(1,0)	(1,0)	(1,0)	(1,0)	(1,0)	(1,0)	
L1D -483>	(1,0)	(1,0)	(1,0)	(1,0)	(1,0)	(1,0)	(1,0)	(1,0)	(1,0)	(1,0)	(1,0)	(1,0)	(1,0)	(1,0)	(1,0)	(1,0)	
L1D -482>	(8,1)	(1,0)	(1,0)	(1,0)	(1,0)	(1,0)	(1,0)	(1,0)	(1,0)	(1,0)	(1,0)	(1,0)	(1,0)	(1,0)	(1,0)	(1,0)	
L1D -481>	(0,1)	(1,0)	(1,0)	(1,0)	(1,0)	(1,0)	(1,0)	(1,0)	(1,0)	(1,0)	(1,0)	(1,0)	(1,0)	(1,0)	(1,0)	(1,0)	
L1D -480>	(2,1)	(0,2)	(1,0)	(1,0)	(1,0)	(1,0)	(1,0)	(1,0)	(1,0)	(1,0)	(1,0)	(1,0)	(1,0)	(1,0)	(1,0)	(1,0)	
L1D -479>	(2,1)	(1,0)	(1,0)	(1,0)	(1,0)	(1,0)	(1,0)	(1,0)	(1,0)	(1,0)	(1,0)	(1,0)	(1,0)	(1,0)	(1,0)	(1,0)	
L1D -478>	(1,1)	(1,0)	(1,0)	(1,0)	(1,0)	(1,0)	(1,0)	(1,0)	(1,0)	(1,0)	(1,0)	(1,0)	(1,0)	(1,0)	(1,0)	(1,0)	
L1D -477>	(415,1)	(1,0)	(1,0)	(1,0)	(1,0)	(1,0)	(1,0)	(1,0)	(1,0)	(1,0)	(1,0)	(1,0)	(1,0)	(1,0)	(1,0)	(1,0)	
L1D -476>	(2,1)	(1,0)	(1,0)	(1,0)	(1,0)	(1,0)	(1,0)	(1,0)	(1,0)	(1,0)	(1,0)	(1,0)	(1,0)	(1,0)	(1,0)	(1,0)	
L1D -475>	(1,0)	(1,0)	(1,0)	(1,0)	(1,0)	(1,0)	(1,0)	(1,0)	(1,0)	(1,0)	(1,0)	(1,0)	(1,0)	(1,0)	(1,0)	(1,0)	
L1D -474>	(2,1)	(473,1)	(1,0)	(1,0)	(1,0)	(1,0)	(1,0)	(1,0)	(1,0)	(1,0)	(1,0)	(1,0)	(1,0)	(1,0)	(1,0)	(1,0)	
L1D -473>	(473,102)	(2,6)	(1,0)	(1,0)	(1,0)	(1,0)	(1,0)	(1,0)	(1,0)	(1,0)	(1,0)	(1,0)	(1,0)	(1,0)	(1,0)	(1,0)	
L1D -472>	(2,1)	(1,0)	(1,0)	(1,0)	(1,0)	(1,0)	(1,0)	(1,0)	(1,0)	(1,0)	(1,0)	(1,0)	(1,0)	(1,0)	(1,0)	(1,0)	
L1D -471>	(1,0)	(1,0)	(1,0)	(1,0)	(1,0)	(1,0)	(1,0)	(1,0)	(1,0)	(1,0)	(1,0)	(1,0)	(1,0)	(1,0)	(1,0)	(1,0)	
L1D -470>	(477,2)	(6,1)	(0,1)	(1,0)	(1,0)	(1,0)	(1,0)	(1,0)	(1,0)	(1,0)	(1,0)	(1,0)	(1,0)	(1,0)	(1,0)	(1,0)	
L1D -469>	(477,105)	(2,1)	(1,1)	(1,0)	(1,0)	(1,0)	(1,0)	(1,0)	(1,0)	(1,0)	(1,0)	(1,0)	(1,0)	(1,0)	(1,0)	(1,0)	
L1D -468>	(8,1)	(1,0)	(1,0)	(1,0)	(1,0)	(1,0)	(1,0)	(1,0)	(1,0)	(1,0)	(1,0)	(1,0)	(1,0)	(1,0)	(1,0)	(1,0)	
L1D -467>	(1,0)	(1,0)	(1,0)	(1,0)	(1,0)	(1,0)	(1,0)	(1,0)	(1,0)	(1,0)	(1,0)	(1,0)	(1,0)	(1,0)	(1,0)	(1,0)	
L1D -466>	(8,1)	(1,0)	(1,0)	(1,0)	(1,0)	(1,0)	(1,0)	(1,0)	(1,0)	(1,0)	(1,0)	(1,0)	(1,0)	(1,0)	(1,0)	(1,0)	
L1D -465>	(1,0)	(1,0)	(1,0)	(1,0)	(1,0)	(1,0)	(1,0)	(1,0)	(1,0)	(1,0)	(1,0)	(1,0)	(1,0)	(1,0)	(1,0)	(1,0)	
L1D -464>	(2,1)	(108,1)	(1,0)	(1,0)	(1,0)	(1,0)	(1,0)	(1,0)	(1,0)	(1,0)	(1,0)	(1,0)	(1,0)	(1,0)	(1,0)	(1,0)	
L1D -463>	(1,0)	(1,0)	(1,0)	(1,0)	(1,0)	(1,0)	(1,0)	(1,0)	(1,0)	(1,0)	(1,0)	(1,0)	(1,0)	(1,0)	(1,0)	(1,0)	
L1D -462>	(2,1)	(450,1)	(1,0)	(1,0)	(1,0)	(1,0)	(1,0)	(1,0)	(1,0)	(1,0)	(1,0)	(1,0)	(1,0)	(1,0)	(1,0)	(1,0)	
L1D -461>	(1,0)	(1,0)	(1,0)	(1,0)	(1,0)	(1,0)	(1,0)	(1,0)	(1,0)	(1,0)	(1,0)	(1,0)	(1,0)	(1,0)	(1,0)	(1,0)	
L1D -460>	(2,1)	(440,1)	(505,1)	(1,0)	(1,0)	(1,0)	(1,0)	(1,0)	(1,0)	(1,0)	(1,0)	(1,0)	(1,0)	(1,0)	(1,0)	(1,0)	
L1D -459>	(1,0)	(1,0)	(1,0)	(1,0)	(1,0)	(1,0)	(1,0)	(1,0)	(1,0)	(1,0)	(1,0)	(1,0)	(1,0)	(1,0)	(1,0)	(1,0)	
L1D -458>	(8,1)	(2,1)	(1,0)	(1,0)	(1,0)	(1,0)	(1,0)	(1,0)	(1,0)	(1,0)	(1,0)	(1,0)	(1,0)	(1,0)	(1,0)	(1,0)	
L1D -457>	(1,0)	(1,0)	(1,0)	(1,0)	(1,0)	(1,0)	(1,0)	(1,0)	(1,0)	(1,0)	(1,0)	(1,0)	(1,0)	(1,0)	(1,0)	(1,0)	
L1D -456>	(8,1)	(1,0)	(1,0)	(1,0)	(1,0)	(1,0)	(1,0)	(1,0)	(1,0)	(1,0)	(1,0)	(1,0)	(1,0)	(1,0)	(1,0)	(1,0)	
L1D -455>	(0,109)	(1,0)	(1,0)	(1,0)	(1,0)	(1,0)	(1,0)	(1,0)	(1,0)	(1,0)	(1,0)	(1,0)	(1,0)	(1,0)	(1,0)	(1,0)	
L1D -454>	(2,1)	(84,1)	(1,0)	(1,0)	(1,0)	(1,0)	(1,0)	(1,0)	(1,0)	(1,0)	(1,0)	(1,0)	(1,0)	(1,0)	(1,0)	(1,0)	
L1D -453>	(1,0)	(1,0)	(1,0)	(1,0)	(1,0)	(1,0)	(1,0)	(1,0)	(1,0)	(1,0)	(1,0)	(1,0)	(1,0)	(1,0)	(1,0)	(1,0)	
L1D -452>	(84,98)	(-7,5)	(6,1)	(2,11)	(1,0)	(1,0)	(1,0)	(1,0)	(1,0)	(1,0)	(1,0)	(1,0)	(1,0)	(1,0)	(1,0)	(1,0)	
L1D -451>	(449,2)	(1,0)	(1,0)	(1,0)	(1,0)	(1,0)	(1,0)	(1,0)	(1,0)	(1,0)	(1,0)	(1,0)	(1,0)	(1,0)	(1,0)	(1,0)	
L1D -450>	(2,12)	(8,11)	(-7,93)	(326,4)	(1,0)	(1,0)	(1,0)	(1,0)	(1,0)	(1,0)	(1,0)	(1,0)	(1,0)	(1,0)	(1,0)	(1,0)	
L1D -449>	(449,104)	(8,100)	(1,0)	(1,0)	(1,0)	(1,0)	(1,0)	(1,0)	(1,0)	(1,0)	(1,0)	(1,0)	(1,0)	(1,0)	(1,0)	(1,0)	
L1D -448>	(326,100)	(2,5)	(336,1)	(1,0)	(1,0)	(1,0)	(1,0)	(1,0)	(1,0)	(1,0)	(1,0)	(1,0)	(1,0)	(1,0)	(1,0)	(1,0)	
L1D -447>	(2,110)	(461,1)	(1,0)	(1,0)	(1,0)	(1,0)	(1,0)	(1,0)	(1,0)	(1,0)	(1,0)	(1,0)	(1,0)	(1,0)	(1,0)	(1,0)	
L1D -446>	(455,85)	(8,0)	(1,0)	(1,0)	(1,0)	(1,0)	(1,0)	(1,0)	(1,0)	(1,0)	(1,0)	(1,0)	(1,0)	(1,0)	(1,0)	(1,0)	
L1D -445>	(439,100)	(1,3)	(1,0)	(1,0)	(1,0)	(1,0)	(1,0)	(1,0)	(1,0)	(1,0)	(1,0)	(1,0)	(1,0)	(1,0)	(1,0)	(1,0)	
L1D -444>	(2,1)	(1,1)	(1,0)	(1,0)	(1,0)	(1,0)	(1,0)	(1,0)	(1,0)	(1,0)	(1,0)	(1,0)	(1,0)	(1,0)	(1,0)	(1,0)	
L1D -443>	(0,1)	(1,0)	(1,0)	(1,0)	(1,0)	(1,0)	(1,0)	(1,0)	(1,0)	(1,0)	(1,0)	(1,0)	(1,0)	(1,0)	(1,0)	(1,0)	
L1D -442>	(8,1)	(1,0)	(1,0)	(1,0)	(1,0)	(1,0)	(1,0)	(1,0)	(1,0)	(1,0)	(1,0)	(1,0)	(1,0)	(1,0)	(1,0)	(1,0)	
L1D -441>	(439,6)	(1,91)	(6,3)	(1,0)	(1,0)	(1,0)	(1,0)	(1,0)	(1,0)	(1,0)	(1,0)	(1,0)	(1,0)	(1,0)	(1,0)	(1,0)	
L1D -440>	(6,105)	(1,1)	(50,5)	(2,1)	(1,0)	(1,0)	(1,0)	(1,0)	(1,0)	(1,0)	(1,0)	(1,0)	(1,0)	(1,0)	(1,0)	(1,0)	
L1D -439>	(1,0)	(1,0)	(1,0)	(1,0)	(1,0)	(1,0)	(1,0)	(1,0)	(1,0)	(1,0)	(1,0)	(1,0)	(1,0)	(1,0)	(1,0)	(1,0)	
L1D -438>	(0,9)	(50,62)	(2,2)	(1,0)	(1,0)	(1,0)	(1,0)	(1,0)	(1,0)	(1,0)	(1,0)	(1,0)	(1,0)	(1,0)	(1,0)	(1,0)	
L1D -437>	(1,4)	(1,0)	(1,0)	(1,0)	(1,0)	(1,0)	(1,0)	(1,0)	(1,0)	(1,0)	(1,0)	(1,0)	(1,0)	(1,0)	(1,0)	(1,0)	
L1D -436>	(8,1)	(1,0)	(1,0)	(1,0)	(1,0)	(1,0)	(1,0)	(1,0)	(1,0)	(1,0)	(1,0)	(1,0)	(1,0)	(1,0)	(1,0)	(1,0)	
L1D -435>	(1,15)	(1,0)	(1,0)	(1,0)	(1,0)	(1,0)	(1,0)	(1,0)	(1,0)	(1,0)	(1,0)	(1,0)	(1,0)	(1,0)	(1,0)	(1,0)	
L1D -434>	(8,1)	(1,0)	(1,0)	(1,0)	(1,0)	(1,0)	(1,0)	(1,0)	(1,0)	(1,0)	(1,0)	(1,0)	(1,0)	(1,0)	(1,0)	(1,0)	
L1D -433>	(-5,1)	(405,2)	(1,0)	(1,0)	(1,0)	(1,0)	(1,0)	(1,0)	(1,0)	(1,0)	(1,0)	(1,0)	(1,0)	(1,0)	(1,0)	(1,0)	
L1D -432>	(2,1)	(1,0)	(1,0)	(1,0)	(1,0)	(1,0)	(1,0)	(1,0)	(1,0)	(1,0)	(1,0)	(1,0)	(1,0)	(1,0)	(1,0)	(1,0)	
L1D -431>	(-8,1)	(1,0)	(1,0)	(1,0)	(1,0)	(1,0)	(1,0)	(1,0)	(1,0)	(1,0)	(1,0)	(1,0)	(1,0)	(1,0)	(1,0)	(1,0)	
L1D -430>	(8,1)	(1,0)	(1,0)	(1,0)	(1,0)	(1,0)	(1,0)	(1,0)	(1,0)	(1,0)	(1,0)	(1,0)	(1,0)	(1,0)	(1,0)	(1,0)	
L1D -429>	(15,1)	(1,0)	(1,0)	(1,0)	(1,0)	(1,0)	(1,0)	(1,0)	(1,0)	(1,0)	(1,0)	(1,0)	(1,0)	(1,0)	(1,0)	(1,0)	
L1D -428>	(2,1)	(0,1)	(1,0)	(1,0)	(1,0)	(1,0)	(1,0)	(1,0)	(1,0)	(1,0)	(1,0)	(1,0)	(1,0)	(1,0)	(1,0)	(1,0)	
L1D -427>	(1,0)	(1,0)	(1,0)	(1,0)	(1,0)	(1,0)	(1,0)	(1,0)	(1,0)	(1,0)	(1,0)	(1,0)	(1,0)	(1,0)	(1,0)	(1,0)	
L1D -426>	(2,1)	(-41,1)	(0,1)	(68,1)	(1,0)	(1,0)	(1,0)	(1,0)	(1,0)	(1,0)	(1,0)	(1,0)	(1,0)	(1,0)	(1,0)	(1,0)	
L1D -425>	(405,1)	(1,0)	(1,0)	(1,0)	(1,0)	(1,0)	(1,0)	(1,0)	(1,0)	(1,0)	(1,0)	(1,0)	(1,0)	(1,0)	(1,0)	(1,0)	
L1D -424>	(408,10)	(405,105)	(1,2)	(2,1)	(414,1)	(1,0)	(1,0)	(1,0)	(1,0)	(1,0)	(1,0)	(1,0)	(1,0)	(1,0)	(1,0)	(1,0)	
L1D -423>	(408,97)	(2,1)	(1,0)	(1,0)	(1,0)	(1,0)	(1,0)	(1,0)	(1,0)	(1,0)	(1,0)	(1,0)	(1,0)	(1,0)	(1,0)	(1,0)	
L1D -422>	(2,1)	(1,0)	(1,0)	(1,0)	(1,0)	(1,0)	(1,0)	(1,0)	(1,0)	(1,0)	(1,0)	(1,0)	(1,0)	(1,0)	(1,0)	(1,0)	
L1D -421>	(1,0)	(1,0)	(1,0)	(1,0)	(1,0)	(1,0)	(1,0)	(1,0)	(1,0)	(1,0)	(1,0)	(1,0)	(1,0)	(1,0)	(1,0)	(1,0)	
L1D -420>	(2,1)	(0,1)	(1,0)	(1,0)	(1,0)	(1,0)	(1,0)	(1,0)	(1,0)	(1,0)	(1,0)	(1,0)	(1,0)	(1,0)	(1,0)	(1,0)	
L1D -419>	(1,1)	(1,0)	(1,0)	(1,0)	(1,0)	(1,0)	(1,0)	(1,0)	(1,0)	(1,0)	(1,0)	(1,0)	(1,0)	(1,0)	(1,0)	(1,0)	
L1D -418>	(8,1)	(1,0)	(1,0)	(1,0)	(1,0)	(1,0)	(1,0)	(1,0)	(1,0)	(1,0)	(1,0)	(1,0)	(1,0)	(1,0)	(1,0)	(1,0)	
L1D -417>	(1,109)	(1,0)	(1,0)	(1,0)	(1,0)	(1,0)	(1,0)	(1,0)	(1,0)	(1,0)	(1,0)	(1,0)	(1,0)	(1,0)	(1,0)	(1,0)	
L1D -416>	(15,102)	(2,4)	(0,2)	(7,1)	(1,0)	(1,0)	(1,0)	(1,0)	(1,0)	(1,0)	(1,0)	(1,0)	(1,0)	(1,0)	(1,0)	(1,0)	
L1D -415>	(480,1)	(1,0)	(1,0)	(1,0)	(1,0)	(1,0)	(1,0)	(1,0)	(1,0)	(1,0)	(1,0)	(1,0)	(1,0)	(1,0)	(1,0)	(1,0)	
L1D -414>	(-5,1)	(2,1)	(15,1)	(1,0)	(1,0)	(1,0)	(1,0)	(1,0)	(1,0)	(1,0)	(1,0)	(1,0)	(1,0)	(1,0)	(1,0)	(1,0)	
L1D -413>	(1,0)	(1,0)	(1,0)	(1,0)	(1,0)	(1,0)	(1,0)	(1,0)	(1,0)	(1,0)	(1,0)	(1,0)	(1,0)	(1,0)	(1,0)	(1,0)	
L1D -412>	(1,13)	(2,1)	(1,0)	(1,0)	(1,0)	(1,0)	(1,0)	(1,0)	(1,0)	(1,0)	(1,0)	(1,0)	(1,0)	(1,0)	(1,0)	(1,0)	
L1D -411>	(1,6)	(-6,2)	(412,1)	(260,1)	(1,0)	(1,0)	(1,0)	(1,0)	(1,0)	(1,0)	(1,0)	(1,0)	(1,0)	(1,0)	(1,0)	(1,0)	
L1D -410>	(1,12)	(2,110)	(-6,98)	(8,1)	(89,1)	(1,0)	(1,0)	(1,0)	(1,0)	(1,0)	(1,0)	(1,0)	(1,0)	(1,0)	(1,0)	(1,0)	
L1D -409>	(2,5)	(-3,88)	(-5,1)	(1,0)	(1,0)	(1,0)	(1,0)	(1,0)	(1,0)	(1,0)	(1,0)	(1,0)	(1,0)	(1,0)	(1,0)	(1,0)	
L1D -408>	(391,3)	(1,83)	(2,0)	(408,0)	(-5,0)	(1,0)	(1,0)	(1,0)	(1,0)	(1,0)	(1,0)	(1,0)	(1,0)	(1,0)	(1,0)	(1,0)	
L1D -407>	(391,1)	(1,0)	(1,0)	(1,0)	(1,0)	(1,0)	(1,0)	(1,0)	(1,0)	(1,0)	(1,0)	(1,0)	(1,0)	(1,0)	(1,0)	(1,0)	
L1D -406>	(407,7)	(6,1)	(406,2)	(-5,1)	(0,1)	(1,0)	(1,0)	(1,0)	(1,0)	(1,0)	(1,0)	(1,0)	(1,0)	(1,0)	(1,0)	(1,0)	
L1D -405>	(1,0)	(1,0)	(1,0)	(1,0)	(1,0)	(1,0)	(1,0)	(1,0)	(1,0)	(1,0)	(1,0)	(1,0)	(1,0)	(1,0)	(1,0)	(1,0)	
L1D -404>	(1,110)	(2,1)	(1,0)	(1,0)	(1,0)	(1,0)	(1,0)	(1,0)	(1,0)	(1,0)	(1,0)	(1,0)	(1,0)	(1,0)	(1,0)	(1,0)	
L1D -403>	(-5,1)	(1,0)	(1,0)	(1,0)	(1,0)	(1,0)	(1,0)	(1,0)	(1,0)	(1,0)	(1,0)	(1,0)	(1,0)	(1,0)	(1,0)	(1,0)	
L1D -402>	(2,1)	(1,0)	(1,0)	(1,0)	(1,0)	(1,0)	(1,0)	(1,0)	(1,0)	(1,0)	(1,0)	(1,0)	(1,0)	(1,0)	(1,0)	(1,0)	
L1D -401>	(-5,7)	(1,4)	(1,0)	(1,0)	(1,0)	(1,0)	(1,0)	(1,0)	(1,0)	(1,0)	(1,0)	(1,0)	(1,0)	(1,0)	(1,0)	(1,0)	
L1D -400>	(2,1)	(1,1)	(1,0)	(1,0)	(1,0)	(1,0)	(1,0)	(1,0)	(1,0)	(1,0)	(1,0)	(1,0)	(1,0)	(1,0)	(1,0)	(1,0)	
L1D -399>	(1,17)	(-5,103)	(0,1)	(32,1)	(1,0)	(1,0)	(1,0)	(1,0)	(1,0)	(1,0)	(1,0)	(1,0)	(1,0)	(1,0)	(1,0)	(1,0)	
L1D -398>	(6,1)	(28,1)	(1,0)	(1,0)	(1,0)	(1,0)	(1,0)	(1,0)	(1,0)	(1,0)	(1,0)	(1,0)	(1,0)	(1,0)	(1,0)	(1,0)	
L1D -397>	(1,116)	(1,0)	(1,0)	(1,0)	(1,0)	(1,0)	(1,0)	(1,0)	(1,0)	(1,0)	(1,0)	(1,0)	(1,0)	(1,0)	(1,0)	(1,0)	
L1D -396>	(5,110)	(1,15)	(-3,2)	(2,1)	(11,4)	(1,0)	(1,0)	(1,0)	(1,0)	(1,0)	(1,0)	(1,0)	(1,0)	(1,0)	(1,0)	(1,0)	
L1D -395>	(1,1)	(1,0)	(1,0)	(1,0)	(1,0)	(1,0)	(1,0)	(1,0)	(1,0)	(1,0)	(1,0)	(1,0)	(1,0)	(1,0)	(1,0)	(1,0)	
L1D -394>	(1,126)	(394,7)	(-3,44)	(2,0)	(396,0)	(1,0)	(1,0)	(1,0)	(1,0)	(1,0)	(1,0)	(1,0)	(1,0)	(1,0)	(1,0)	(1,0)	
L1D -393>	(1,9)	(1,0)	(1,0)	(1,0)	(1,0)	(1,0)	(1,0)	(1,0)	(1,0)	(1,0)	(1,0)	(1,0)	(1,0)	(1,0)	(1,0)	(1,0)	
L1D -392>	(1,1)	(4,1)	(1,0)	(1,0)	(1,0)	(1,0)	(1,0)	(1,0)	(1,0)	(1,0)	(1,0)	(1,0)	(1,0)	(1,0)	(1,0)	(1,0)	
L1D -391>	(1,3)	(1,0)	(1,0)	(1,0)	(1,0)	(1,0)	(1,0)	(1,0)	(1,0)	(1,0)	(1,0)	(1,0)	(1,0)	(1,0)	(1,0)	(1,0)	
L1D -390>	(8,1)	(2,1)	(1,0)	(1,0)	(1,0)	(1,0)	(1,0)	(1,0)	(1,0)	(1,0)	(1,0)	(1,0)	(1,0)	(1,0)	(1,0)	(1,0)	
L1D -389>	(1,1)	(379,1)	(1,0)	(1,0)	(1,0)	(1,0)	(1,0)	(1,0)	(1,0)	(1,0)	(1,0)	(1,0)	(1,0)	(1,0)	(1,0)	(1,0)	
L1D -388>	(6,1)	(1,0)	(1,0)	(1,0)	(1,0)	(1,0)	(1,0)	(1,0)	(1,0)	(1,0)	(1,0)	(1,0)	(1,0)	(1,0)	(1,0)	(1,0)	
L1D -387>	(-8,5)	(-9,88)	(15,0)	(1,0)	(1,0)	(1,0)	(1,0)	(1,0)	(1,0)	(1,0)	(1,0)	(1,0)	(1,0)	(1,0)	(1,0)	(1,0)	
L1D -386>	(2,1)	(-5,1)	(1,0)	(1,0)	(1,0)	(1,0)	(1,0)	(1,0)	(1,0)	(1,0)	(1,0)	(1,0)	(1,0)	(1,0)	(1,0)	(1,0)	
L1D -385>	(370,4)	(-8,6)	(1,0)	(1,0)	(1,0)	(1,0)	(1,0)	(1,0)	(1,0)	(1,0)	(1,0)	(1,0)	(1,0)	(1,0)	(1,0)	(1,0)	
L1D -384>	(1,59)	(2,1)	(1,0)	(1,0)	(1,0)	(1,0)	(1,0)	(1,0)	(1,0)	(1,0)	(1,0)	(1,0)	(1,0)	(1,0)	(1,0)	(1,0)	
L1D -383>	(1,4)	(384,1)	(8,1)	(1,0)	(1,0)	(1,0)	(1,0)	(1,0)	(1,0)	(1,0)	(1,0)	(1,0)	(1,0)	(1,0)	(1,0)	(1,0)	
L1D -382>	(8,1)	(1,1)	(2,4)	(353,1)	(10,1)	(1,0)	(1,0)	(1,0)	(1,0)	(1,0)	(1,0)	(1,0)	(1,0)	(1,0)	(1,0)	(1,0)	
L1D -381>	(41,86)	(2,55)	(-3,67)	(382,0)	(1,0)	(1,0)	(1,0)	(1,0)	(1,0)	(1,0)	(1,0)	(1,0)	(1,0)	(1,0)	(1,0)	(1,0)	
L1D -380>	(-5,3)	(380,20)	(379,15)	(381,33)	(6,1)	(2,3)	(8,1)	(1,0)	(1,0)	(1,0)	(1,0)	(1,0)	(1,0)	(1,0)	(1,0)	(1,0)	
L1D -379>	(-5,1)	(2,1)	(1,0)	(1,0)	(1,0)	(1,0)	(1,0)	(1,0)	(1,0)	(1,0)	(1,0)	(1,0)	(1,0)	(1,0)	(1,0)	(1,0)	
L1D -378>	(-5,3)	(379,2)	(8,2)	(378,2)	(6,1)	(1,0)	(1,0)	(1,0)	(1,0)	(1,0)	(1,0)	(1,0)	(1,0)	(1,0)	(1,0)	(1,0)	
L1D -377>	(2,1)	(1,1)	(106,1)	(1,0)	(1,0)	(1,0)	(1,0)	(1,0)	(1,0)	(1,0)	(1,0)	(1,0)	(1,0)	(1,0)	(1,0)	(1,0)	
L1D -376>	(2,3)	(8,1)	(1,0)	(1,0)	(1,0)	(1,0)	(1,0)	(1,0)	(1,0)	(1,0)	(1,0)	(1,0)	(1,0)	(1,0)	(1,0)	(1,0)	
L1D -375>	(2,1)	(70,1)	(395,1)	(1,0)	(1,0)	(1,0)	(1,0)	(1,0)	(1,0)	(1,0)	(1,0)	(1,0)	(1,0)	(1,0)	(1,0)	(1,0)	
L1D -374>	(374,1)	(1,7)	(2,42)	(8,3)	(9,1)	(0,1)	(1,0)	(1,0)	(1,0)	(1,0)	(1,0)	(1,0)	(1,0)	(1,0)	(1,0)	(1,0)	
L1D -373>	(10,1)	(1,0)	(1,0)	(1,0)	(1,0)	(1,0)	(1,0)	(1,0)	(1,0)	(1,0)	(1,0)	(1,0)	(1,0)	(1,0)	(1,0)	(1,0)	
L1D -372>	(1,67)	(8,3)	(373,1)	(2,2)	(1,0)	(1,0)	(1,0)	(1,0)	(1,0)	(1,0)	(1,0)	(1,0)	(1,0)	(1,0)	(1,0)	(1,0)	
L1D -371>	(372,2)	(4,1)	(1,0)	(1,0)	(1,0)	(1,0)	(1,0)	(1,0)	(1,0)	(1,0)	(1,0)	(1,0)	(1,0)	(1,0)	(1,0)	(1,0)	
L1D -370>	(6,1)	(2,2)	(1,0)	(1,0)	(1,0)	(1,0)	(1,0)	(1,0)	(1,0)	(1,0)	(1,0)	(1,0)	(1,0)	(1,0)	(1,0)	(1,0)	
L1D -369>	(1,111)	(8,1)	(1,0)	(1,0)	(1,0)	(1,0)	(1,0)	(1,0)	(1,0)	(1,0)	(1,0)	(1,0)	(1,0)	(1,0)	(1,0)	(1,0)	
L1D -368>	(367,92)	(8,1)	(2,5)	(5,1)	(1,0)	(1,0)	(1,0)	(1,0)	(1,0)	(1,0)	(1,0)	(1,0)	(1,0)	(1,0)	(1,0)	(1,0)	
L1D -367>	(1,81)	(368,10)	(2,93)	(367,2)	(369,2)	(6,1)	(1,0)	(1,0)	(1,0)	(1,0)	(1,0)	(1,0)	(1,0)	(1,0)	(1,0)	(1,0)	
L1D -366>	(366,30)	(367,10)	(-5,1)	(-8,118)	(2,12)	(8,2)	(409,0)	(1,0)	(1,0)	(1,0)	(1,0)	(1,0)	(1,0)	(1,0)	(1,0)	(1,0)	
L1D -365>	(1,10)	(369,91)	(0,3)	(2,1)	(355,1)	(1,0)	(1,0)	(1,0)	(1,0)	(1,0)	(1,0)	(1,0)	(1,0)	(1,0)	(1,0)	(1,0)	
L1D -364>	(364,120)	(2,61)	(373,1)	(6,1)	(367,1)	(1,0)	(1,0)	(1,0)	(1,0)	(1,0)	(1,0)	(1,0)	(1,0)	(1,0)	(1,0)	(1,0)	
L1D -363>	(6,1)	(-8,1)	(1,0)	(1,0)	(1,0)	(1,0)	(1,0)	(1,0)	(1,0)	(1,0)	(1,0)	(1,0)	(1,0)	(1,0)	(1,0)	(1,0)	
L1D -362>	(4,1)	(10,1)	(1,2)	(2,4)	(8,1)	(1,0)	(1,0)	(1,0)	(1,0)	(1,0)	(1,0)	(1,0)	(1,0)	(1,0)	(1,0)	(1,0)	
L1D -361>	(1,113)	(-8,106)	(362,1)	(2,1)	(1,0)	(1,0)	(1,0)	(1,0)	(1,0)	(1,0)	(1,0)	(1,0)	(1,0)	(1,0)	(1,0)	(1,0)	
L1D -360>	(2,2)	(8,1)	(1,0)	(1,0)	(1,0)	(1,0)	(1,0)	(1,0)	(1,0)	(1,0)	(1,0)	(1,0)	(1,0)	(1,0)	(1,0)	(1,0)	
L1D -359>	(12,5)	(2,2)	(1,0)	(1,0)	(1,0)	(1,0)	(1,0)	(1,0)	(1,0)	(1,0)	(1,0)	(1,0)	(1,0)	(1,0)	(1,0)	(1,0)	
L1D -358>	(-36,119)	(358,5)	(4,1)	(8,1)	(2,1)	(0,3)	(1,0)	(1,0)	(1,0)	(1,0)	(1,0)	(1,0)	(1,0)	(1,0)	(1,0)	(1,0)	
L1D -357>	(12,104)	(2,10)	(409,100)	(1,3)	(1,0)	(1,0)	(1,0)	(1,0)	(1,0)	(1,0)	(1,0)	(1,0)	(1,0)	(1,0)	(1,0)	(1,0)	
L1D -356>	(85,101)	(2,11)	(8,1)	(1,0)	(1,0)	(1,0)	(1,0)	(1,0)	(1,0)	(1,0)	(1,0)	(1,0)	(1,0)	(1,0)	(1,0)	(1,0)	
L1D -355>	(1,108)	(8,1)	(1,0)	(1,0)	(1,0)	(1,0)	(1,0)	(1,0)	(1,0)	(1,0)	(1,0)	(1,0)	(1,0)	(1,0)	(1,0)	(1,0)	
L1D -354>	(4,2)	(2,1)	(1,1)	(6,1)	(3,1)	(1,0)	(1,0)	(1,0)	(1,0)	(1,0)	(1,0)	(1,0)	(1,0)	(1,0)	(1,0)	(1,0)	
L1D -353>	(1,110)	(0,1)	(2,1)	(1,0)	(1,0)	(1,0)	(1,0)	(1,0)	(1,0)	(1,0)	(1,0)	(1,0)	(1,0)	(1,0)	(1,0)	(1,0)	
L1D -352>	(4,108)	(345,107)	(2,5)	(5,6)	(0,2)	(385,1)	(-5,1)	(1,0)	(1,0)	(1,0)	(1,0)	(1,0)	(1,0)	(1,0)	(1,0)	(1,0)	
L1D -351>	(352,2)	(2,1)	(5,1)	(1,0)	(1,0)	(1,0)	(1,0)	(1,0)	(1,0)	(1,0)	(1,0)	(1,0)	(1,0)	(1,0)	(1,0)	(1,0)	
L1D -350>	(0,2)	(1,10)	(5,97)	(8,3)	(2,3)	(1,0)	(1,0)	(1,0)	(1,0)	(1,0)	(1,0)	(1,0)	(1,0)	(1,0)	(1,0)	(1,0)	
L1D -349>	(2,103)	(-6,5)	(1,0)	(1,0)	(1,0)	(1,0)	(1,0)	(1,0)	(1,0)	(1,0)	(1,0)	(1,0)	(1,0)	(1,0)	(1,0)	(1,0)	
L1D -348>	(2,12)	(322,7)	(5,2)	(4,1)	(-15,1)	(1,0)	(1,0)	(1,0)	(1,0)	(1,0)	(1,0)	(1,0)	(1,0)	(1,0)	(1,0)	(1,0)	
L1D -347>	(364,31)	(394,22)	(5,108)	(2,91)	(-5,2)	(408,5)	(1,0)	(1,0)	(1,0)	(1,0)	(1,0)	(1,0)	(1,0)	(1,0)	(1,0)	(1,0)	
L1D -346>	(322,103)	(8,2)	(2,1)	(1,1)	(1,0)	(1,0)	(1,0)	(1,0)	(1,0)	(1,0)	(1,0)	(1,0)	(1,0)	(1,0)	(1,0)	(1,0)	
L1D -345>	(2,1)	(1,0)	(1,0)	(1,0)	(1,0)	(1,0)	(1,0)	(1,0)	(1,0)	(1,0)	(1,0)	(1,0)	(1,0)	(1,0)	(1,0)	(1,0)	
L1D -344>	(-12,9)	(2,11)	(-16,96)	(8,2)	(-4,4)	(6,1)	(83,1)	(1,0)	(1,0)	(1,0)	(1,0)	(1,0)	(1,0)	(1,0)	(1,0)	(1,0)	
L1D -343>	(2,15)	(-15,106)	(-12,98)	(-16,3)	(-4,95)	(1,2)	(1,0)	(1,0)	(1,0)	(1,0)	(1,0)	(1,0)	(1,0)	(1,0)	(1,0)	(1,0)	
L1D -342>	(-11,91)	(2,8)	(8,2)	(1,0)	(1,0)	(1,0)	(1,0)	(1,0)	(1,0)	(1,0)	(1,0)	(1,0)	(1,0)	(1,0)	(1,0)	(1,0)	
L1D -341>	(-5,1)	(2,8)	(10,79)	(335,48)	(6,55)	(402,2)	(-11,1)	(1,0)	(1,0)	(1,0)	(1,0)	(1,0)	(1,0)	(1,0)	(1,0)	(1,0)	
L1D -340>	(8,1)	(2,2)	(1,0)	(1,0)	(1,0)	(1,0)	(1,0)	(1,0)	(1,0)	(1,0)	(1,0)	(1,0)	(1,0)	(1,0)	(1,0)	(1,0)	
L1D -339>	(452,3)	(8,1)	(1,0)	(1,0)	(1,0)	(1,0)	(1,0)	(1,0)	(1,0)	(1,0)	(1,0)	(1,0)	(1,0)	(1,0)	(1,0)	(1,0)	
L1D -338>	(387,1)	(8,1)	(2,2)	(1,0)	(1,0)	(1,0)	(1,0)	(1,0)	(1,0)	(1,0)	(1,0)	(1,0)	(1,0)	(1,0)	(1,0)	(1,0)	
L1D -337>	(1,71)	(-10,1)	(6,1)	(1,0)	(1,0)	(1,0)	(1,0)	(1,0)	(1,0)	(1,0)	(1,0)	(1,0)	(1,0)	(1,0)	(1,0)	(1,0)	
L1D -336>	(387,109)	(8,2)	(2,1)	(1,0)	(1,0)	(1,0)	(1,0)	(1,0)	(1,0)	(1,0)	(1,0)	(1,0)	(1,0)	(1,0)	(1,0)	(1,0)	
L1D -335>	(8,1)	(1,0)	(1,0)	(1,0)	(1,0)	(1,0)	(1,0)	(1,0)	(1,0)	(1,0)	(1,0)	(1,0)	(1,0)	(1,0)	(1,0)	(1,0)	
L1D -334>	(4,1)	(8,1)	(2,1)	(106,1)	(1,0)	(1,0)	(1,0)	(1,0)	(1,0)	(1,0)	(1,0)	(1,0)	(1,0)	(1,0)	(1,0)	(1,0)	
L1D -333>	(2,1)	(1,1)	(1,0)	(1,0)	(1,0)	(1,0)	(1,0)	(1,0)	(1,0)	(1,0)	(1,0)	(1,0)	(1,0)	(1,0)	(1,0)	(1,0)	
L1D -332>	(1,109)	(2,2)	(8,1)	(1,0)	(1,0)	(1,0)	(1,0)	(1,0)	(1,0)	(1,0)	(1,0)	(1,0)	(1,0)	(1,0)	(1,0)	(1,0)	
L1D -331>	(-10,10)	(452,1)	(4,1)	(9,26)	(0,3)	(1,0)	(1,0)	(1,0)	(1,0)	(1,0)	(1,0)	(1,0)	(1,0)	(1,0)	(1,0)	(1,0)	
L1D -330>	(452,106)	(2,1)	(8,1)	(4,1)	(1,0)	(1,0)	(1,0)	(1,0)	(1,0)	(1,0)	(1,0)	(1,0)	(1,0)	(1,0)	(1,0)	(1,0)	
L1D -329>	(8,1)	(1,0)	(1,0)	(1,0)	(1,0)	(1,0)	(1,0)	(1,0)	(1,0)	(1,0)	(1,0)	(1,0)	(1,0)	(1,0)	(1,0)	(1,0)	
L1D -328>	(2,1)	(4,1)	(6,1)	(1,1)	(1,0)	(1,0)	(1,0)	(1,0)	(1,0)	(1,0)	(1,0)	(1,0)	(1,0)	(1,0)	(1,0)	(1,0)	
L1D -327>	(346,1)	(8,1)	(1,0)	(1,0)	(1,0)	(1,0)	(1,0)	(1,0)	(1,0)	(1,0)	(1,0)	(1,0)	(1,0)	(1,0)	(1,0)	(1,0)	
L1D -326>	(346,108)	(6,2)	(9,3)	(2,2)	(1,1)	(1,0)	(1,0)	(1,0)	(1,0)	(1,0)	(1,0)	(1,0)	(1,0)	(1,0)	(1,0)	(1,0)	
L1D -325>	(9,105)	(2,3)	(-5,1)	(1,0)	(1,0)	(1,0)	(1,0)	(1,0)	(1,0)	(1,0)	(1,0)	(1,0)	(1,0)	(1,0)	(1,0)	(1,0)	
L1D -324>	(4,4)	(151,70)	(154,41)	(2,3)	(1,0)	(1,0)	(1,0)	(1,0)	(1,0)	(1,0)	(1,0)	(1,0)	(1,0)	(1,0)	(1,0)	(1,0)	
L1D -323>	(151,7)	(154,8)	(8,1)	(1,0)	(1,0)	(1,0)	(1,0)	(1,0)	(1,0)	(1,0)	(1,0)	(1,0)	(1,0)	(1,0)	(1,0)	(1,0)	
L1D -322>	(2,3)	(5,2)	(1,5)	(1,0)	(1,0)	(1,0)	(1,0)	(1,0)	(1,0)	(1,0)	(1,0)	(1,0)	(1,0)	(1,0)	(1,0)	(1,0)	
L1D -321>	(5,107)	(4,1)	(2,1)	(1,1)	(1,0)	(1,0)	(1,0)	(1,0)	(1,0)	(1,0)	(1,0)	(1,0)	(1,0)	(1,0)	(1,0)	(1,0)	
L1D -320>	(4,1)	(1,1)	(8,1)	(2,1)	(1,0)	(1,0)	(1,0)	(1,0)	(1,0)	(1,0)	(1,0)	(1,0)	(1,0)	(1,0)	(1,0)	(1,0)	
L1D -319>	(366,20)	(380,10)	(1,9)	(0,1)	(-8,100)	(8,1)	(1,0)	(1,0)	(1,0)	(1,0)	(1,0)	(1,0)	(1,0)	(1,0)	(1,0)	(1,0)	
L1D -318>	(2,2)	(5,1)	(6,1)	(1,0)	(1,0)	(1,0)	(1,0)	(1,0)	(1,0)	(1,0)	(1,0)	(1,0)	(1,0)	(1,0)	(1,0)	(1,0)	
L1D -317>	(2,1)	(1,0)	(1,0)	(1,0)	(1,0)	(1,0)	(1,0)	(1,0)	(1,0)	(1,0)	(1,0)	(1,0)	(1,0)	(1,0)	(1,0)	(1,0)	
L1D -316>	(6,1)	(2,15)	(1,0)	(1,0)	(1,0)	(1,0)	(1,0)	(1,0)	(1,0)	(1,0)	(1,0)	(1,0)	(1,0)	(1,0)	(1,0)	(1,0)	
L1D -315>	(8,1)	(1,0)	(1,0)	(1,0)	(1,0)	(1,0)	(1,0)	(1,0)	(1,0)	(1,0)	(1,0)	(1,0)	(1,0)	(1,0)	(1,0)	(1,0)	
L1D -314>	(2,2)	(6,2)	(1,0)	(1,0)	(1,0)	(1,0)	(1,0)	(1,0)	(1,0)	(1,0)	(1,0)	(1,0)	(1,0)	(1,0)	(1,0)	(1,0)	
L1D -313>	(1,86)	(2,1)	(1,0)	(1,0)	(1,0)	(1,0)	(1,0)	(1,0)	(1,0)	(1,0)	(1,0)	(1,0)	(1,0)	(1,0)	(1,0)	(1,0)	
L1D -312>	(8,2)	(9,5)	(2,2)	(1,0)	(1,0)	(1,0)	(1,0)	(1,0)	(1,0)	(1,0)	(1,0)	(1,0)	(1,0)	(1,0)	(1,0)	(1,0)	
L1D -311>	(358,16)	(9,1)	(-12,22)	(1,1)	(2,1)	(1,0)	(1,0)	(1,0)	(1,0)	(1,0)	(1,0)	(1,0)	(1,0)	(1,0)	(1,0)	(1,0)	
L1D -310>	(2,4)	(9,102)	(4,1)	(1,8)	(8,1)	(106,1)	(1,0)	(1,0)	(1,0)	(1,0)	(1,0)	(1,0)	(1,0)	(1,0)	(1,0)	(1,0)	
L1D -309>	(501,100)	(4,107)	(1,11)	(2,3)	(8,1)	(1,0)	(1,0)	(1,0)	(1,0)	(1,0)	(1,0)	(1,0)	(1,0)	(1,0)	(1,0)	(1,0)	
L1D -308>	(106,105)	(18,1)	(501,5)	(2,3)	(8,1)	(1,0)	(1,0)	(1,0)	(1,0)	(1,0)	(1,0)	(1,0)	(1,0)	(1,0)	(1,0)	(1,0)	
L1D -307>	(1,11)	(-5,1)	(2,1)	(1,0)	(1,0)	(1,0)	(1,0)	(1,0)	(1,0)	(1,0)	(1,0)	(1,0)	(1,0)	(1,0)	(1,0)	(1,0)	
L1D -306>	(5,8)	(2,2)	(0,1)	(8,1)	(4,1)	(1,0)	(1,0)	(1,0)	(1,0)	(1,0)	(1,0)	(1,0)	(1,0)	(1,0)	(1,0)	(1,0)	
L1D -305>	(5,100)	(2,1)	(1,0)	(1,0)	(1,0)	(1,0)	(1,0)	(1,0)	(1,0)	(1,0)	(1,0)	(1,0)	(1,0)	(1,0)	(1,0)	(1,0)	
L1D -304>	(2,3)	(1,2)	(1,0)	(1,0)	(1,0)	(1,0)	(1,0)	(1,0)	(1,0)	(1,0)	(1,0)	(1,0)	(1,0)	(1,0)	(1,0)	(1,0)	
L1D -303>	(1,1)	(4,1)	(1,0)	(1,0)	(1,0)	(1,0)	(1,0)	(1,0)	(1,0)	(1,0)	(1,0)	(1,0)	(1,0)	(1,0)	(1,0)	(1,0)	
L1D -302>	(2,9)	(8,1)	(6,1)	(18,1)	(1,0)	(1,0)	(1,0)	(1,0)	(1,0)	(1,0)	(1,0)	(1,0)	(1,0)	(1,0)	(1,0)	(1,0)	
L1D -301>	(1,109)	(2,9)	(18,92)	(8,1)	(1,0)	(1,0)	(1,0)	(1,0)	(1,0)	(1,0)	(1,0)	(1,0)	(1,0)	(1,0)	(1,0)	(1,0)	
L1D -300>	(2,0)	(8,0)	(1,64)	(1,0)	(1,0)	(1,0)	(1,0)	(1,0)	(1,0)	(1,0)	(1,0)	(1,0)	(1,0)	(1,0)	(1,0)	(1,0)	
L1D -299>	(-12,84)	(2,109)	(1,2)	(6,1)	(1,0)	(1,0)	(1,0)	(1,0)	(1,0)	(1,0)	(1,0)	(1,0)	(1,0)	(1,0)	(1,0)	(1,0)	
L1D -298>	(8,2)	(-17,1)	(1,44)	(2,2)	(1,0)	(1,0)	(1,0)	(1,0)	(1,0)	(1,0)	(1,0)	(1,0)	(1,0)	(1,0)	(1,0)	(1,0)	
L1D -297>	(6,1)	(1,0)	(1,0)	(1,0)	(1,0)	(1,0)	(1,0)	(1,0)	(1,0)	(1,0)	(1,0)	(1,0)	(1,0)	(1,0)	(1,0)	(1,0)	
L1D -296>	(1,1)	(2,2)	(296,1)	(1,0)	(1,0)	(1,0)	(1,0)	(1,0)	(1,0)	(1,0)	(1,0)	(1,0)	(1,0)	(1,0)	(1,0)	(1,0)	
L1D -295>	(6,1)	(1,0)	(1,0)	(1,0)	(1,0)	(1,0)	(1,0)	(1,0)	(1,0)	(1,0)	(1,0)	(1,0)	(1,0)	(1,0)	(1,0)	(1,0)	
L1D -294>	(1,1)	(8,1)	(2,1)	(1,0)	(1,0)	(1,0)	(1,0)	(1,0)	(1,0)	(1,0)	(1,0)	(1,0)	(1,0)	(1,0)	(1,0)	(1,0)	
L1D -293>	(8,1)	(1,0)	(1,0)	(1,0)	(1,0)	(1,0)	(1,0)	(1,0)	(1,0)	(1,0)	(1,0)	(1,0)	(1,0)	(1,0)	(1,0)	(1,0)	
L1D -292>	(2,1)	(9,1)	(8,1)	(4,1)	(-18,58)	(6,1)	(-30,29)	(-39,51)	(-24,32)	(-27,1)	(1,0)	(1,0)	(1,0)	(1,0)	(1,0)	(1,0)	
L1D -291>	(4,1)	(1,0)	(1,0)	(1,0)	(1,0)	(1,0)	(1,0)	(1,0)	(1,0)	(1,0)	(1,0)	(1,0)	(1,0)	(1,0)	(1,0)	(1,0)	
L1D -290>	(1,1)	(14,1)	(2,1)	(1,0)	(1,0)	(1,0)	(1,0)	(1,0)	(1,0)	(1,0)	(1,0)	(1,0)	(1,0)	(1,0)	(1,0)	(1,0)	
L1D -289>	(-86,2)	(6,1)	(1,0)	(1,0)	(1,0)	(1,0)	(1,0)	(1,0)	(1,0)	(1,0)	(1,0)	(1,0)	(1,0)	(1,0)	(1,0)	(1,0)	
L1D -288>	(1,1)	(2,1)	(8,1)	(0,1)	(11,1)	(1,0)	(1,0)	(1,0)	(1,0)	(1,0)	(1,0)	(1,0)	(1,0)	(1,0)	(1,0)	(1,0)	
L1D -287>	(-86,106)	(1,14)	(8,1)	(259,10)	(249,1)	(28,5)	(255,11)	(253,12)	(30,6)	(221,3)	(145,1)	(261,10)	(257,7)	(251,4)	(263,7)	(245,1)	
L1D -286>	(2,14)	(1,99)	(8,1)	(89,1)	(1,0)	(1,0)	(1,0)	(1,0)	(1,0)	(1,0)	(1,0)	(1,0)	(1,0)	(1,0)	(1,0)	(1,0)	
L1D -285>	(-15,8)	(1,1)	(5,1)	(2,1)	(1,0)	(1,0)	(1,0)	(1,0)	(1,0)	(1,0)	(1,0)	(1,0)	(1,0)	(1,0)	(1,0)	(1,0)	
L1D -284>	(-15,97)	(1,3)	(2,98)	(4,1)	(-162,1)	(200,32)	(1,0)	(1,0)	(1,0)	(1,0)	(1,0)	(1,0)	(1,0)	(1,0)	(1,0)	(1,0)	
L1D -283>	(1,4)	(0,74)	(-54,1)	(5,53)	(1,0)	(1,0)	(1,0)	(1,0)	(1,0)	(1,0)	(1,0)	(1,0)	(1,0)	(1,0)	(1,0)	(1,0)	
L1D -282>	(2,111)	(-71,11)	(8,1)	(1,29)	(6,1)	(1,0)	(1,0)	(1,0)	(1,0)	(1,0)	(1,0)	(1,0)	(1,0)	(1,0)	(1,0)	(1,0)	
L1D -281>	(1,105)	(200,2)	(77,1)	(1,0)	(1,0)	(1,0)	(1,0)	(1,0)	(1,0)	(1,0)	(1,0)	(1,0)	(1,0)	(1,0)	(1,0)	(1,0)	
L1D -280>	(2,30)	(1,1)	(-71,86)	(5,3)	(-12,7)	(0,9)	(-2,27)	(8,1)	(1,0)	(1,0)	(1,0)	(1,0)	(1,0)	(1,0)	(1,0)	(1,0)	
L1D -279>	(2,88)	(240,1)	(4,2)	(8,1)	(0,1)	(-15,0)	(1,3)	(1,0)	(1,0)	(1,0)	(1,0)	(1,0)	(1,0)	(1,0)	(1,0)	(1,0)	
L1D -278>	(-5,110)	(5,107)	(2,104)	(1,1)	(8,1)	(1,0)	(1,0)	(1,0)	(1,0)	(1,0)	(1,0)	(1,0)	(1,0)	(1,0)	(1,0)	(1,0)	
L1D -277>	(1,107)	(2,26)	(6,22)	(8,27)	(4,23)	(271,2)	(26,1)	(0,4)	(30,1)	(244,1)	(38,1)	(1,0)	(1,0)	(1,0)	(1,0)	(1,0)	
L1D -276>	(2,13)	(4,4)	(1,1)	(6,1)	(0,4)	(248,1)	(38,1)	(1,0)	(1,0)	(1,0)	(1,0)	(1,0)	(1,0)	(1,0)	(1,0)	(1,0)	
L1D -275>	(271,106)	(2,11)	(4,1)	(8,1)	(1,2)	(6,1)	(292,15)	(298,1)	(248,1)	(0,3)	(1,0)	(1,0)	(1,0)	(1,0)	(1,0)	(1,0)	
L1D -274>	(2,109)	(283,1)	(8,1)	(0,8)	(248,1)	(244,1)	(30,1)	(236,1)	(38,1)	(234,1)	(1,0)	(1,0)	(1,0)	(1,0)	(1,0)	(1,0)	
L1D -273>	(2,8)	(4,10)	(283,108)	(8,5)	(6,2)	(1,1)	(1,0)	(1,0)	(1,0)	(1,0)	(1,0)	(1,0)	(1,0)	(1,0)	(1,0)	(1,0)	
L1D -272>	(1,1)	(6,1)	(4,1)	(0,1)	(2,2)	(8,1)	(1,0)	(1,0)	(1,0)	(1,0)	(1,0)	(1,0)	(1,0)	(1,0)	(1,0)	(1,0)	
L1D -271>	(1,43)	(3,6)	(8,2)	(6,2)	(0,15)	(2,1)	(271,2)	(11,41)	(13,10)	(1,0)	(1,0)	(1,0)	(1,0)	(1,0)	(1,0)	(1,0)	
L1D -270>	(0,87)	(80,39)	(-5,1)	(2,2)	(1,0)	(1,0)	(1,0)	(1,0)	(1,0)	(1,0)	(1,0)	(1,0)	(1,0)	(1,0)	(1,0)	(1,0)	
L1D -269>	(1,19)	(107,99)	(8,4)	(0,2)	(4,2)	(6,2)	(2,2)	(1,0)	(1,0)	(1,0)	(1,0)	(1,0)	(1,0)	(1,0)	(1,0)	(1,0)	
L1D -268>	(0,79)	(10,1)	(7,46)	(5,2)	(2,1)	(1,0)	(1,0)	(1,0)	(1,0)	(1,0)	(1,0)	(1,0)	(1,0)	(1,0)	(1,0)	(1,0)	
L1D -267>	(8,5)	(4,2)	(0,4)	(1,0)	(1,0)	(1,0)	(1,0)	(1,0)	(1,0)	(1,0)	(1,0)	(1,0)	(1,0)	(1,0)	(1,0)	(1,0)	
L1D -266>	(2,6)	(1,34)	(8,1)	(6,1)	(266,1)	(1,0)	(1,0)	(1,0)	(1,0)	(1,0)	(1,0)	(1,0)	(1,0)	(1,0)	(1,0)	(1,0)	
L1D -265>	(2,1)	(6,3)	(282,1)	(1,4)	(0,2)	(1,0)	(1,0)	(1,0)	(1,0)	(1,0)	(1,0)	(1,0)	(1,0)	(1,0)	(1,0)	(1,0)	
L1D -264>	(1,1)	(6,2)	(2,2)	(281,3)	(5,1)	(0,8)	(270,1)	(8,1)	(1,0)	(1,0)	(1,0)	(1,0)	(1,0)	(1,0)	(1,0)	(1,0)	
L1D -263>	(2,108)	(1,15)	(5,6)	(280,15)	(-2,3)	(0,1)	(1,0)	(1,0)	(1,0)	(1,0)	(1,0)	(1,0)	(1,0)	(1,0)	(1,0)	(1,0)	
L1D -262>	(1,7)	(232,1)	(226,1)	(2,2)	(0,1)	(261,1)	(1,0)	(1,0)	(1,0)	(1,0)	(1,0)	(1,0)	(1,0)	(1,0)	(1,0)	(1,0)	
L1D -261>	(229,1)	(8,1)	(4,3)	(-5,1)	(1,1)	(1,0)	(1,0)	(1,0)	(1,0)	(1,0)	(1,0)	(1,0)	(1,0)	(1,0)	(1,0)	(1,0)	
L1D -260>	(1,120)	(0,3)	(6,100)	(2,9)	(8,2)	(-5,1)	(260,1)	(-11,63)	(1,0)	(1,0)	(1,0)	(1,0)	(1,0)	(1,0)	(1,0)	(1,0)	
L1D -259>	(10,1)	(217,1)	(203,1)	(-13,71)	(193,1)	(150,107)	(-28,40)	(1,10)	(229,1)	(225,1)	(4,5)	(227,1)	(2,5)	(183,1)	(231,2)	(163,1)	
L1D -258>	(1,104)	(2,2)	(-13,56)	(-8,2)	(8,1)	(0,7)	(259,1)	(4,1)	(256,1)	(-2,2)	(1,0)	(1,0)	(1,0)	(1,0)	(1,0)	(1,0)	
L1D -257>	(225,3)	(254,7)	(217,3)	(209,2)	(7,3)	(231,5)	(5,16)	(219,5)	(213,6)	(205,5)	(1,1)	(21,1)	(207,4)	(185,2)	(133,2)	(95,2)	
L1D -256>	(1,3)	(8,3)	(4,1)	(2,1)	(6,1)	(0,2)	(254,2)	(1,0)	(1,0)	(1,0)	(1,0)	(1,0)	(1,0)	(1,0)	(1,0)	(1,0)	
L1D -255>	(248,4)	(8,5)	(4,2)	(240,1)	(1,1)	(-1,1)	(1,0)	(1,0)	(1,0)	(1,0)	(1,0)	(1,0)	(1,0)	(1,0)	(1,0)	(1,0)	
L1D -254>	(253,22)	(257,16)	(1,1)	(-3,1)	(5,10)	(8,1)	(4,1)	(-2,3)	(6,1)	(0,3)	(252,1)	(1,0)	(1,0)	(1,0)	(1,0)	(1,0)	
L1D -253>	(257,4)	(141,1)	(8,1)	(149,1)	(151,1)	(4,1)	(5,1)	(251,1)	(159,1)	(233,1)	(1,0)	(1,0)	(1,0)	(1,0)	(1,0)	(1,0)	
L1D -252>	(-5,27)	(2,11)	(0,2)	(150,4)	(136,3)	(218,4)	(248,14)	(220,5)	(152,3)	(226,2)	(138,2)	(140,3)	(142,5)	(144,5)	(146,3)	(148,3)	
L1D -251>	(8,2)	(4,1)	(2,2)	(253,1)	(-1,1)	(-2,1)	(1,0)	(1,0)	(1,0)	(1,0)	(1,0)	(1,0)	(1,0)	(1,0)	(1,0)	(1,0)	
L1D -250>	(1,1)	(4,1)	(2,102)	(271,6)	(0,3)	(154,1)	(8,1)	(-2,3)	(-1,1)	(248,1)	(1,0)	(1,0)	(1,0)	(1,0)	(1,0)	(1,0)	
L1D -249>	(136,4)	(248,54)	(138,6)	(140,3)	(142,3)	(144,1)	(228,1)	(146,6)	(148,4)	(8,2)	(2,2)	(156,1)	(1,1)	(1,0)	(1,0)	(1,0)	
L1D -248>	(194,78)	(2,5)	(150,2)	(8,2)	(152,2)	(-2,1)	(248,1)	(246,1)	(0,2)	(6,1)	(1,1)	(1,0)	(1,0)	(1,0)	(1,0)	(1,0)	
L1D -247>	(8,2)	(271,1)	(0,4)	(1,1)	(5,1)	(255,1)	(6,1)	(1,0)	(1,0)	(1,0)	(1,0)	(1,0)	(1,0)	(1,0)	(1,0)	(1,0)	
L1D -246>	(2,94)	(1,1)	(271,3)	(0,29)	(8,1)	(-2,1)	(246,1)	(244,1)	(1,0)	(1,0)	(1,0)	(1,0)	(1,0)	(1,0)	(1,0)	(1,0)	
L1D -245>	(8,1)	(1,1)	(2,1)	(4,1)	(0,3)	(107,1)	(1,0)	(1,0)	(1,0)	(1,0)	(1,0)	(1,0)	(1,0)	(1,0)	(1,0)	(1,0)	
L1D -244>	(1,112)	(0,35)	(2,2)	(8,2)	(4,1)	(-2,1)	(245,1)	(244,1)	(242,2)	(1,0)	(1,0)	(1,0)	(1,0)	(1,0)	(1,0)	(1,0)	
L1D -243>	(4,1)	(8,1)	(-5,2)	(2,1)	(1,0)	(1,0)	(1,0)	(1,0)	(1,0)	(1,0)	(1,0)	(1,0)	(1,0)	(1,0)	(1,0)	(1,0)	
L1D -242>	(-5,107)	(1,2)	(9,1)	(0,39)	(2,2)	(-2,1)	(1,0)	(1,0)	(1,0)	(1,0)	(1,0)	(1,0)	(1,0)	(1,0)	(1,0)	(1,0)	
L1D -241>	(2,29)	(1,5)	(14,11)	(16,1)	(12,2)	(8,3)	(6,1)	(0,1)	(-1,1)	(-2,1)	(1,0)	(1,0)	(1,0)	(1,0)	(1,0)	(1,0)	
L1D -240>	(2,109)	(1,2)	(14,32)	(8,30)	(12,16)	(16,2)	(4,2)	(0,2)	(7,4)	(1,0)	(1,0)	(1,0)	(1,0)	(1,0)	(1,0)	(1,0)	
L1D -239>	(98,86)	(38,1)	(0,8)	(1,1)	(8,1)	(238,1)	(1,0)	(1,0)	(1,0)	(1,0)	(1,0)	(1,0)	(1,0)	(1,0)	(1,0)	(1,0)	
L1D -238>	(2,25)	(1,108)	(234,2)	(0,44)	(5,93)	(8,3)	(271,2)	(227,1)	(12,1)	(6,1)	(7,1)	(1,0)	(1,0)	(1,0)	(1,0)	(1,0)	
L1D -237>	(6,1)	(4,1)	(8,1)	(1,8)	(14,1)	(237,1)	(-34,1)	(-1,1)	(1,0)	(1,0)	(1,0)	(1,0)	(1,0)	(1,0)	(1,0)	(1,0)	
L1D -236>	(230,3)	(1,18)	(-8,106)	(0,15)	(271,2)	(6,1)	(2,4)	(234,1)	(-5,1)	(79,1)	(1,0)	(1,0)	(1,0)	(1,0)	(1,0)	(1,0)	
L1D -235>	(230,83)	(42,1)	(1,2)	(235,3)	(8,1)	(1,0)	(1,0)	(1,0)	(1,0)	(1,0)	(1,0)	(1,0)	(1,0)	(1,0)	(1,0)	(1,0)	
L1D -234>	(-5,57)	(1,9)	(8,30)	(2,67)	(0,1)	(254,4)	(235,1)	(12,15)	(16,1)	(234,23)	(79,69)	(143,86)	(9,1)	(7,2)	(1,0)	(1,0)	
L1D -233>	(1,33)	(233,16)	(8,2)	(-14,9)	(2,1)	(1,0)	(1,0)	(1,0)	(1,0)	(1,0)	(1,0)	(1,0)	(1,0)	(1,0)	(1,0)	(1,0)	
L1D -232>	(84,61)	(57,126)	(1,3)	(-14,4)	(-5,1)	(8,2)	(1,0)	(1,0)	(1,0)	(1,0)	(1,0)	(1,0)	(1,0)	(1,0)	(1,0)	(1,0)	
L1D -231>	(57,78)	(2,2)	(8,1)	(1,5)	(0,1)	(231,3)	(258,0)	(1,0)	(1,0)	(1,0)	(1,0)	(1,0)	(1,0)	(1,0)	(1,0)	(1,0)	
L1D -230>	(57,46)	(1,17)	(0,6)	(2,2)	(-14,7)	(8,1)	(-18,1)	(4,1)	(1,0)	(1,0)	(1,0)	(1,0)	(1,0)	(1,0)	(1,0)	(1,0)	
L1D -229>	(1,75)	(254,0)	(57,4)	(4,0)	(229,4)	(0,1)	(1,0)	(1,0)	(1,0)	(1,0)	(1,0)	(1,0)	(1,0)	(1,0)	(1,0)	(1,0)	
L1D -228>	(2,3)	(1,13)	(0,5)	(-14,7)	(6,2)	(248,1)	(1,0)	(1,0)	(1,0)	(1,0)	(1,0)	(1,0)	(1,0)	(1,0)	(1,0)	(1,0)	
L1D -227>	(254,1)	(5,1)	(1,41)	(8,1)	(253,1)	(4,2)	(227,9)	(107,1)	(209,1)	(2,1)	(1,0)	(1,0)	(1,0)	(1,0)	(1,0)	(1,0)	
L1D -226>	(1,17)	(0,5)	(248,2)	(8,2)	(2,1)	(1,0)	(1,0)	(1,0)	(1,0)	(1,0)	(1,0)	(1,0)	(1,0)	(1,0)	(1,0)	(1,0)	
L1D -225>	(1,55)	(253,2)	(8,1)	(225,6)	(254,1)	(-14,8)	(258,1)	(224,1)	(2,1)	(1,0)	(1,0)	(1,0)	(1,0)	(1,0)	(1,0)	(1,0)	
L1D -224>	(1,5)	(136,1)	(-14,5)	(5,1)	(2,3)	(-68,1)	(1,0)	(1,0)	(1,0)	(1,0)	(1,0)	(1,0)	(1,0)	(1,0)	(1,0)	(1,0)	
L1D -223>	(5,109)	(254,3)	(1,19)	(8,3)	(0,5)	(223,4)	(4,1)	(-14,1)	(222,1)	(2,1)	(1,0)	(1,0)	(1,0)	(1,0)	(1,0)	(1,0)	
L1D -222>	(1,5)	(248,5)	(136,1)	(-14,3)	(0,4)	(4,2)	(8,1)	(-4,1)	(16,1)	(2,1)	(1,0)	(1,0)	(1,0)	(1,0)	(1,0)	(1,0)	
L1D -221>	(6,3)	(1,2)	(-5,2)	(2,1)	(221,3)	(-14,1)	(16,1)	(0,1)	(1,0)	(1,0)	(1,0)	(1,0)	(1,0)	(1,0)	(1,0)	(1,0)	
L1D -220>	(6,107)	(2,20)	(1,2)	(0,5)	(4,1)	(248,3)	(227,1)	(-14,2)	(1,0)	(1,0)	(1,0)	(1,0)	(1,0)	(1,0)	(1,0)	(1,0)	
L1D -219>	(-5,108)	(1,10)	(8,2)	(219,2)	(254,1)	(5,1)	(2,1)	(1,0)	(1,0)	(1,0)	(1,0)	(1,0)	(1,0)	(1,0)	(1,0)	(1,0)	
L1D -218>	(1,1)	(2,76)	(227,39)	(248,0)	(8,0)	(471,0)	(4,0)	(-23,0)	(1,0)	(1,0)	(1,0)	(1,0)	(1,0)	(1,0)	(1,0)	(1,0)	
L1D -217>	(1,105)	(5,6)	(8,3)	(217,2)	(-14,1)	(1,0)	(1,0)	(1,0)	(1,0)	(1,0)	(1,0)	(1,0)	(1,0)	(1,0)	(1,0)	(1,0)	
L1D -216>	(1,3)	(8,3)	(215,1)	(-14,1)	(-32,1)	(2,2)	(-26,1)	(1,0)	(1,0)	(1,0)	(1,0)	(1,0)	(1,0)	(1,0)	(1,0)	(1,0)	
L1D -215>	(1,4)	(0,4)	(215,3)	(-6,5)	(6,1)	(204,1)	(2,1)	(1,0)	(1,0)	(1,0)	(1,0)	(1,0)	(1,0)	(1,0)	(1,0)	(1,0)	
L1D -214>	(1,4)	(2,2)	(0,6)	(-14,1)	(-113,1)	(-5,1)	(19,1)	(231,1)	(4,1)	(1,0)	(1,0)	(1,0)	(1,0)	(1,0)	(1,0)	(1,0)	
L1D -213>	(1,18)	(-16,6)	(-6,92)	(8,1)	(213,2)	(0,2)	(1,0)	(1,0)	(1,0)	(1,0)	(1,0)	(1,0)	(1,0)	(1,0)	(1,0)	(1,0)	
L1D -212>	(1,4)	(-113,108)	(-16,1)	(0,6)	(215,3)	(8,1)	(-14,2)	(218,1)	(2,1)	(212,1)	(1,0)	(1,0)	(1,0)	(1,0)	(1,0)	(1,0)	
L1D -211>	(-16,100)	(1,8)	(2,2)	(8,2)	(7,1)	(211,1)	(176,2)	(6,1)	(1,0)	(1,0)	(1,0)	(1,0)	(1,0)	(1,0)	(1,0)	(1,0)	
L1D -210>	(1,110)	(5,9)	(215,104)	(2,5)	(7,89)	(0,2)	(6,1)	(1,0)	(1,0)	(1,0)	(1,0)	(1,0)	(1,0)	(1,0)	(1,0)	(1,0)	
L1D -209>	(176,108)	(1,4)	(209,2)	(0,1)	(2,1)	(1,0)	(1,0)	(1,0)	(1,0)	(1,0)	(1,0)	(1,0)	(1,0)	(1,0)	(1,0)	(1,0)	
L1D -208>	(1,4)	(0,1)	(-5,5)	(4,3)	(-14,1)	(8,3)	(210,1)	(1,0)	(1,0)	(1,0)	(1,0)	(1,0)	(1,0)	(1,0)	(1,0)	(1,0)	
L1D -207>	(4,107)	(2,3)	(1,4)	(207,2)	(8,2)	(0,1)	(1,0)	(1,0)	(1,0)	(1,0)	(1,0)	(1,0)	(1,0)	(1,0)	(1,0)	(1,0)	
L1D -206>	(2,112)	(1,41)	(4,1)	(8,3)	(0,3)	(13,1)	(1,0)	(1,0)	(1,0)	(1,0)	(1,0)	(1,0)	(1,0)	(1,0)	(1,0)	(1,0)	
L1D -205>	(254,1)	(205,3)	(8,1)	(2,1)	(7,1)	(1,0)	(1,0)	(1,0)	(1,0)	(1,0)	(1,0)	(1,0)	(1,0)	(1,0)	(1,0)	(1,0)	
L1D -204>	(4,117)	(0,59)	(208,10)	(2,2)	(1,0)	(1,0)	(1,0)	(1,0)	(1,0)	(1,0)	(1,0)	(1,0)	(1,0)	(1,0)	(1,0)	(1,0)	
L1D -203>	(254,1)	(1,2)	(8,2)	(2,1)	(1,0)	(1,0)	(1,0)	(1,0)	(1,0)	(1,0)	(1,0)	(1,0)	(1,0)	(1,0)	(1,0)	(1,0)	
L1D -202>	(200,76)	(8,1)	(1,1)	(0,1)	(2,1)	(6,1)	(1,0)	(1,0)	(1,0)	(1,0)	(1,0)	(1,0)	(1,0)	(1,0)	(1,0)	(1,0)	
L1D -201>	(6,86)	(1,51)	(0,2)	(1,0)	(1,0)	(1,0)	(1,0)	(1,0)	(1,0)	(1,0)	(1,0)	(1,0)	(1,0)	(1,0)	(1,0)	(1,0)	
L1D -200>	(1,23)	(2,1)	(-14,1)	(6,2)	(9,2)	(8,1)	(1,0)	(1,0)	(1,0)	(1,0)	(1,0)	(1,0)	(1,0)	(1,0)	(1,0)	(1,0)	
L1D -199>	(2,1)	(199,3)	(0,3)	(254,1)	(1,6)	(-14,1)	(-79,1)	(8,1)	(1,0)	(1,0)	(1,0)	(1,0)	(1,0)	(1,0)	(1,0)	(1,0)	
L1D -198>	(4,58)	(210,1)	(1,100)	(2,1)	(-14,0)	(1,0)	(1,0)	(1,0)	(1,0)	(1,0)	(1,0)	(1,0)	(1,0)	(1,0)	(1,0)	(1,0)	
L1D -197>	(2,1)	(1,5)	(197,5)	(8,1)	(0,1)	(1,0)	(1,0)	(1,0)	(1,0)	(1,0)	(1,0)	(1,0)	(1,0)	(1,0)	(1,0)	(1,0)	
L1D -196>	(3,73)	(-4,110)	(1,1)	(4,24)	(0,1)	(-14,4)	(2,2)	(-5,1)	(-183,1)	(1,0)	(1,0)	(1,0)	(1,0)	(1,0)	(1,0)	(1,0)	
L1D -195>	(2,2)	(195,1)	(1,0)	(1,0)	(1,0)	(1,0)	(1,0)	(1,0)	(1,0)	(1,0)	(1,0)	(1,0)	(1,0)	(1,0)	(1,0)	(1,0)	
L1D -194>	(5,8)	(1,7)	(25,3)	(0,1)	(8,2)	(2,1)	(1,0)	(1,0)	(1,0)	(1,0)	(1,0)	(1,0)	(1,0)	(1,0)	(1,0)	(1,0)	
L1D -193>	(9,88)	(183,21)	(193,88)	(7,88)	(1,84)	(25,53)	(-11,5)	(-26,1)	(-1,66)	(1,0)	(1,0)	(1,0)	(1,0)	(1,0)	(1,0)	(1,0)	
L1D -192>	(5,103)	(-1,5)	(-4,2)	(-14,2)	(1,2)	(4,1)	(6,1)	(-147,1)	(8,1)	(2,1)	(1,0)	(1,0)	(1,0)	(1,0)	(1,0)	(1,0)	
L1D -191>	(4,108)	(192,1)	(8,2)	(2,2)	(6,3)	(1,0)	(1,0)	(1,0)	(1,0)	(1,0)	(1,0)	(1,0)	(1,0)	(1,0)	(1,0)	(1,0)	
L1D -190>	(2,19)	(4,2)	(6,108)	(186,1)	(0,3)	(248,2)	(9,1)	(1,0)	(1,0)	(1,0)	(1,0)	(1,0)	(1,0)	(1,0)	(1,0)	(1,0)	
L1D -189>	(0,9)	(177,15)	(1,6)	(192,98)	(190,1)	(8,1)	(20,1)	(2,1)	(1,0)	(1,0)	(1,0)	(1,0)	(1,0)	(1,0)	(1,0)	(1,0)	
L1D -188>	(5,111)	(4,1)	(-2,3)	(6,1)	(2,1)	(0,1)	(8,1)	(1,0)	(1,0)	(1,0)	(1,0)	(1,0)	(1,0)	(1,0)	(1,0)	(1,0)	
L1D -187>	(1,121)	(177,92)	(181,5)	(0,2)	(188,1)	(2,1)	(-30,1)	(1,0)	(1,0)	(1,0)	(1,0)	(1,0)	(1,0)	(1,0)	(1,0)	(1,0)	
L1D -186>	(8,1)	(0,1)	(2,2)	(1,0)	(1,0)	(1,0)	(1,0)	(1,0)	(1,0)	(1,0)	(1,0)	(1,0)	(1,0)	(1,0)	(1,0)	(1,0)	
L1D -185>	(1,110)	(0,2)	(181,92)	(186,2)	(8,1)	(5,1)	(1,0)	(1,0)	(1,0)	(1,0)	(1,0)	(1,0)	(1,0)	(1,0)	(1,0)	(1,0)	
L1D -184>	(8,24)	(2,90)	(5,3)	(10,102)	(4,8)	(6,1)	(1,0)	(1,0)	(1,0)	(1,0)	(1,0)	(1,0)	(1,0)	(1,0)	(1,0)	(1,0)	
L1D -183>	(0,1)	(183,1)	(166,1)	(2,1)	(1,0)	(1,0)	(1,0)	(1,0)	(1,0)	(1,0)	(1,0)	(1,0)	(1,0)	(1,0)	(1,0)	(1,0)	
L1D -182>	(4,75)	(2,45)	(8,1)	(5,37)	(1,0)	(1,0)	(1,0)	(1,0)	(1,0)	(1,0)	(1,0)	(1,0)	(1,0)	(1,0)	(1,0)	(1,0)	
L1D -181>	(182,1)	(8,1)	(1,5)	(254,1)	(0,1)	(1,0)	(1,0)	(1,0)	(1,0)	(1,0)	(1,0)	(1,0)	(1,0)	(1,0)	(1,0)	(1,0)	
L1D -180>	(2,11)	(5,3)	(1,1)	(8,1)	(-4,40)	(211,1)	(0,1)	(1,0)	(1,0)	(1,0)	(1,0)	(1,0)	(1,0)	(1,0)	(1,0)	(1,0)	
L1D -179>	(180,1)	(8,2)	(0,1)	(36,1)	(6,1)	(1,0)	(1,0)	(1,0)	(1,0)	(1,0)	(1,0)	(1,0)	(1,0)	(1,0)	(1,0)	(1,0)	
L1D -178>	(1,109)	(5,46)	(4,1)	(8,1)	(1,0)	(1,0)	(1,0)	(1,0)	(1,0)	(1,0)	(1,0)	(1,0)	(1,0)	(1,0)	(1,0)	(1,0)	
L1D -177>	(1,2)	(4,7)	(0,1)	(-27,1)	(2,1)	(1,0)	(1,0)	(1,0)	(1,0)	(1,0)	(1,0)	(1,0)	(1,0)	(1,0)	(1,0)	(1,0)	
L1D -176>	(5,60)	(2,81)	(190,1)	(8,1)	(1,0)	(1,0)	(1,0)	(1,0)	(1,0)	(1,0)	(1,0)	(1,0)	(1,0)	(1,0)	(1,0)	(1,0)	
L1D -175>	(2,109)	(176,1)	(8,1)	(111,3)	(0,2)	(32,1)	(5,5)	(6,1)	(1,0)	(1,0)	(1,0)	(1,0)	(1,0)	(1,0)	(1,0)	(1,0)	
L1D -174>	(2,109)	(4,1)	(6,2)	(0,1)	(170,1)	(-9,1)	(-5,1)	(1,0)	(1,0)	(1,0)	(1,0)	(1,0)	(1,0)	(1,0)	(1,0)	(1,0)	
L1D -173>	(5,68)	(0,9)	(2,76)	(1,8)	(111,66)	(175,69)	(-5,1)	(3,1)	(1,0)	(1,0)	(1,0)	(1,0)	(1,0)	(1,0)	(1,0)	(1,0)	
L1D -172>	(2,13)	(3,1)	(-14,1)	(172,1)	(6,1)	(1,0)	(1,0)	(1,0)	(1,0)	(1,0)	(1,0)	(1,0)	(1,0)	(1,0)	(1,0)	(1,0)	
L1D -171>	(6,1)	(170,1)	(172,0)	(1,93)	(254,0)	(1,0)	(1,0)	(1,0)	(1,0)	(1,0)	(1,0)	(1,0)	(1,0)	(1,0)	(1,0)	(1,0)	
L1D -170>	(-3,121)	(15,15)	(170,71)	(-34,2)	(-154,74)	(0,48)	(-12,2)	(12,56)	(8,1)	(1,12)	(1,0)	(1,0)	(1,0)	(1,0)	(1,0)	(1,0)	
L1D -169>	(169,68)	(170,60)	(-3,9)	(0,1)	(1,70)	(12,0)	(8,0)	(-154,0)	(1,0)	(1,0)	(1,0)	(1,0)	(1,0)	(1,0)	(1,0)	(1,0)	
L1D -168>	(168,90)	(169,79)	(173,1)	(0,19)	(-1,1)	(8,1)	(6,2)	(1,0)	(1,0)	(1,0)	(1,0)	(1,0)	(1,0)	(1,0)	(1,0)	(1,0)	
L1D -167>	(0,2)	(2,1)	(1,0)	(1,0)	(1,0)	(1,0)	(1,0)	(1,0)	(1,0)	(1,0)	(1,0)	(1,0)	(1,0)	(1,0)	(1,0)	(1,0)	
L1D -166>	(1,3)	(8,2)	(2,1)	(6,1)	(1,0)	(1,0)	(1,0)	(1,0)	(1,0)	(1,0)	(1,0)	(1,0)	(1,0)	(1,0)	(1,0)	(1,0)	
L1D -165>	(1,14)	(57,94)	(0,3)	(8,1)	(1,0)	(1,0)	(1,0)	(1,0)	(1,0)	(1,0)	(1,0)	(1,0)	(1,0)	(1,0)	(1,0)	(1,0)	
L1D -164>	(8,1)	(6,2)	(1,0)	(1,0)	(1,0)	(1,0)	(1,0)	(1,0)	(1,0)	(1,0)	(1,0)	(1,0)	(1,0)	(1,0)	(1,0)	(1,0)	
L1D -163>	(4,86)	(6,1)	(1,0)	(1,0)	(1,0)	(1,0)	(1,0)	(1,0)	(1,0)	(1,0)	(1,0)	(1,0)	(1,0)	(1,0)	(1,0)	(1,0)	
L1D -162>	(-8,3)	(1,2)	(2,4)	(0,1)	(51,2)	(-18,1)	(-20,2)	(-26,1)	(8,1)	(1,0)	(1,0)	(1,0)	(1,0)	(1,0)	(1,0)	(1,0)	
L1D -161>	(1,3)	(51,106)	(0,3)	(162,1)	(2,3)	(193,1)	(253,1)	(1,0)	(1,0)	(1,0)	(1,0)	(1,0)	(1,0)	(1,0)	(1,0)	(1,0)	
L1D -160>	(2,3)	(-16,1)	(0,1)	(8,1)	(160,1)	(1,0)	(1,0)	(1,0)	(1,0)	(1,0)	(1,0)	(1,0)	(1,0)	(1,0)	(1,0)	(1,0)	
L1D -159>	(2,2)	(140,1)	(0,2)	(1,1)	(1,0)	(1,0)	(1,0)	(1,0)	(1,0)	(1,0)	(1,0)	(1,0)	(1,0)	(1,0)	(1,0)	(1,0)	
L1D -158>	(1,14)	(2,94)	(5,96)	(-2,2)	(-10,2)	(-62,1)	(8,1)	(1,0)	(1,0)	(1,0)	(1,0)	(1,0)	(1,0)	(1,0)	(1,0)	(1,0)	
L1D -157>	(0,3)	(2,15)	(1,7)	(158,2)	(55,1)	(8,1)	(-10,1)	(1,0)	(1,0)	(1,0)	(1,0)	(1,0)	(1,0)	(1,0)	(1,0)	(1,0)	
L1D -156>	(152,1)	(1,2)	(144,1)	(6,1)	(271,1)	(1,0)	(1,0)	(1,0)	(1,0)	(1,0)	(1,0)	(1,0)	(1,0)	(1,0)	(1,0)	(1,0)	
L1D -155>	(-3,9)	(1,68)	(0,2)	(167,52)	(-6,46)	(8,1)	(2,17)	(4,0)	(6,0)	(1,0)	(1,0)	(1,0)	(1,0)	(1,0)	(1,0)	(1,0)	
L1D -154>	(4,1)	(2,79)	(151,99)	(1,5)	(154,29)	(5,2)	(6,73)	(-3,2)	(355,1)	(-2,1)	(0,1)	(8,1)	(1,0)	(1,0)	(1,0)	(1,0)	
L1D -153>	(5,87)	(13,50)	(9,0)	(2,0)	(1,0)	(1,0)	(1,0)	(1,0)	(1,0)	(1,0)	(1,0)	(1,0)	(1,0)	(1,0)	(1,0)	(1,0)	
L1D -152>	(2,3)	(90,1)	(135,1)	(8,1)	(1,0)	(1,0)	(1,0)	(1,0)	(1,0)	(1,0)	(1,0)	(1,0)	(1,0)	(1,0)	(1,0)	(1,0)	
L1D -151>	(0,58)	(13,10)	(-5,60)	(1,68)	(256,1)	(-8,55)	(2,2)	(1,0)	(1,0)	(1,0)	(1,0)	(1,0)	(1,0)	(1,0)	(1,0)	(1,0)	
L1D -150>	(2,9)	(9,4)	(1,3)	(5,2)	(0,2)	(-5,1)	(-4,23)	(8,1)	(1,0)	(1,0)	(1,0)	(1,0)	(1,0)	(1,0)	(1,0)	(1,0)	
L1D -149>	(0,56)	(16,110)	(2,98)	(1,17)	(5,6)	(-3,1)	(146,1)	(17,1)	(134,1)	(112,1)	(6,1)	(-5,1)	(1,0)	(1,0)	(1,0)	(1,0)	
L1D -148>	(2,5)	(-12,1)	(0,77)	(6,1)	(1,22)	(-3,0)	(-2,0)	(152,0)	(1,0)	(1,0)	(1,0)	(1,0)	(1,0)	(1,0)	(1,0)	(1,0)	
L1D -147>	(146,1)	(2,2)	(20,1)	(50,1)	(-3,1)	(8,2)	(1,1)	(333,1)	(1,0)	(1,0)	(1,0)	(1,0)	(1,0)	(1,0)	(1,0)	(1,0)	
L1D -146>	(2,92)	(6,1)	(-1,0)	(1,0)	(1,0)	(1,0)	(1,0)	(1,0)	(1,0)	(1,0)	(1,0)	(1,0)	(1,0)	(1,0)	(1,0)	(1,0)	
L1D -145>	(84,7)	(5,105)	(1,86)	(8,2)	(6,1)	(2,3)	(144,1)	(177,1)	(0,3)	(1,0)	(1,0)	(1,0)	(1,0)	(1,0)	(1,0)	(1,0)	
L1D -144>	(84,80)	(-173,1)	(8,1)	(6,1)	(1,2)	(1,0)	(1,0)	(1,0)	(1,0)	(1,0)	(1,0)	(1,0)	(1,0)	(1,0)	(1,0)	(1,0)	
L1D -143>	(4,1)	(-5,106)	(1,6)	(-2,2)	(10,1)	(0,4)	(147,1)	(79,12)	(2,1)	(1,0)	(1,0)	(1,0)	(1,0)	(1,0)	(1,0)	(1,0)	
L1D -142>	(5,111)	(-5,107)	(140,1)	(2,5)	(151,45)	(35,1)	(1,2)	(141,1)	(8,1)	(-3,1)	(0,2)	(160,1)	(6,1)	(1,0)	(1,0)	(1,0)	
L1D -141>	(141,89)	(116,108)	(-9,101)	(1,2)	(-4,2)	(112,3)	(8,1)	(5,1)	(0,1)	(1,0)	(1,0)	(1,0)	(1,0)	(1,0)	(1,0)	(1,0)	
L1D -140>	(0,1)	(141,124)	(171,1)	(1,1)	(-15,1)	(8,1)	(5,1)	(1,0)	(1,0)	(1,0)	(1,0)	(1,0)	(1,0)	(1,0)	(1,0)	(1,0)	
L1D -139>	(5,75)	(-14,0)	(142,0)	(1,5)	(-3,0)	(2,0)	(-2,0)	(7,1)	(143,0)	(4,1)	(65,0)	(159,0)	(0,1)	(1,0)	(1,0)	(1,0)	
L1D -138>	(170,7)	(1,110)	(2,1)	(137,1)	(154,1)	(8,1)	(-2,1)	(0,1)	(4,1)	(6,1)	(1,0)	(1,0)	(1,0)	(1,0)	(1,0)	(1,0)	
L1D -137>	(5,9)	(137,105)	(1,6)	(2,5)	(7,92)	(0,1)	(138,1)	(8,1)	(-6,4)	(112,6)	(115,4)	(114,1)	(-8,5)	(28,1)	(1,0)	(1,0)	
L1D -136>	(2,4)	(120,107)	(1,5)	(135,1)	(-2,2)	(112,1)	(6,2)	(130,2)	(8,1)	(1,0)	(1,0)	(1,0)	(1,0)	(1,0)	(1,0)	(1,0)	
L1D -135>	(115,104)	(112,96)	(5,12)	(-6,9)	(1,15)	(2,5)	(-3,1)	(7,74)	(135,2)	(140,1)	(0,3)	(136,1)	(9,1)	(-1,1)	(14,1)	(137,1)	
L1D -134>	(1,1)	(-4,12)	(125,14)	(2,6)	(130,92)	(-14,2)	(138,1)	(-3,2)	(131,1)	(8,2)	(329,1)	(0,1)	(1,0)	(1,0)	(1,0)	(1,0)	
L1D -133>	(1,104)	(329,102)	(2,6)	(-6,98)	(-2,1)	(133,1)	(137,1)	(8,1)	(335,1)	(1,0)	(1,0)	(1,0)	(1,0)	(1,0)	(1,0)	(1,0)	
L1D -132>	(-7,108)	(-5,104)	(117,9)	(142,5)	(2,22)	(-4,93)	(131,2)	(1,2)	(133,1)	(0,3)	(-14,1)	(145,1)	(-3,1)	(25,1)	(6,1)	(-12,1)	
L1D -131>	(23,8)	(1,63)	(142,60)	(117,62)	(0,123)	(8,2)	(7,1)	(2,1)	(-6,1)	(1,0)	(1,0)	(1,0)	(1,0)	(1,0)	(1,0)	(1,0)	
L1D -130>	(2,100)	(-3,1)	(132,1)	(5,6)	(-2,1)	(1,1)	(0,1)	(6,2)	(1,0)	(1,0)	(1,0)	(1,0)	(1,0)	(1,0)	(1,0)	(1,0)	
L1D -129>	(5,12)	(1,19)	(2,4)	(7,95)	(133,1)	(8,3)	(-14,1)	(4,1)	(24,1)	(0,2)	(73,1)	(-38,1)	(1,0)	(1,0)	(1,0)	(1,0)	
L1D -128>	(2,4)	(-2,2)	(1,2)	(132,1)	(6,1)	(-5,1)	(8,1)	(1,0)	(1,0)	(1,0)	(1,0)	(1,0)	(1,0)	(1,0)	(1,0)	(1,0)	
L1D -127>	(2,114)	(5,16)	(9,1)	(-2,3)	(7,86)	(1,99)	(10,4)	(126,1)	(492,4)	(-8,1)	(-3,1)	(0,1)	(1,0)	(1,0)	(1,0)	(1,0)	
L1D -126>	(6,110)	(1,112)	(0,10)	(123,1)	(107,106)	(492,95)	(2,4)	(13,5)	(8,1)	(-5,1)	(14,15)	(-1,1)	(1,0)	(1,0)	(1,0)	(1,0)	
L1D -125>	(0,3)	(1,4)	(95,1)	(-3,2)	(361,4)	(-129,1)	(-2,1)	(2,1)	(1,0)	(1,0)	(1,0)	(1,0)	(1,0)	(1,0)	(1,0)	(1,0)	
L1D -124>	(361,100)	(1,2)	(121,1)	(369,1)	(127,1)	(-131,1)	(124,1)	(-3,1)	(8,3)	(6,1)	(3,1)	(128,1)	(270,1)	(1,0)	(1,0)	(1,0)	
L1D -123>	(5,13)	(-2,2)	(1,2)	(-131,2)	(6,1)	(0,1)	(-26,1)	(2,1)	(1,0)	(1,0)	(1,0)	(1,0)	(1,0)	(1,0)	(1,0)	(1,0)	
L1D -122>	(2,107)	(0,2)	(122,2)	(5,101)	(1,4)	(121,2)	(-133,1)	(-3,1)	(4,1)	(8,2)	(-20,1)	(6,1)	(1,0)	(1,0)	(1,0)	(1,0)	
L1D -121>	(8,108)	(3,1)	(4,1)	(361,3)	(123,2)	(-5,1)	(0,1)	(1,0)	(1,0)	(1,0)	(1,0)	(1,0)	(1,0)	(1,0)	(1,0)	(1,0)	
L1D -120>	(5,1)	(-2,1)	(0,2)	(120,3)	(1,1)	(-3,1)	(6,2)	(2,1)	(-5,1)	(-279,1)	(107,1)	(10,1)	(1,0)	(1,0)	(1,0)	(1,0)	
L1D -119>	(3,86)	(5,1)	(-10,1)	(108,1)	(-3,1)	(0,10)	(117,2)	(2,1)	(1,1)	(8,1)	(1,0)	(1,0)	(1,0)	(1,0)	(1,0)	(1,0)	
L1D -118>	(1,113)	(4,46)	(-8,46)	(106,1)	(-16,1)	(6,1)	(2,4)	(-173,41)	(1,0)	(1,0)	(1,0)	(1,0)	(1,0)	(1,0)	(1,0)	(1,0)	
L1D -117>	(5,118)	(-210,48)	(2,55)	(4,52)	(1,9)	(117,48)	(-173,2)	(-3,1)	(10,51)	(113,1)	(0,0)	(116,0)	(40,0)	(-137,0)	(1,0)	(1,0)	
L1D -116>	(-7,14)	(2,4)	(113,1)	(-2,2)	(120,4)	(4,2)	(8,1)	(-5,1)	(5,1)	(1,1)	(6,1)	(1,0)	(1,0)	(1,0)	(1,0)	(1,0)	
L1D -115>	(5,74)	(6,90)	(-3,1)	(0,2)	(1,7)	(-5,2)	(120,1)	(2,1)	(-210,1)	(-139,0)	(90,0)	(8,0)	(1,0)	(1,0)	(1,0)	(1,0)	
L1D -114>	(115,15)	(2,117)	(113,11)	(4,2)	(8,1)	(-3,2)	(111,7)	(-7,92)	(3,2)	(-173,1)	(5,4)	(-2,1)	(11,1)	(-9,9)	(118,1)	(116,1)	
L1D -113>	(8,1)	(1,91)	(0,39)	(6,42)	(-5,40)	(-9,0)	(113,28)	(5,1)	(2,14)	(4,0)	(477,0)	(108,0)	(1,0)	(1,0)	(1,0)	(1,0)	
L1D -112>	(5,110)	(-9,24)	(4,1)	(106,25)	(113,0)	(2,4)	(62,34)	(128,0)	(107,0)	(8,2)	(-4,0)	(1,0)	(1,0)	(1,0)	(1,0)	(1,0)	
L1D -111>	(1,120)	(5,106)	(106,103)	(2,5)	(4,3)	(-2,3)	(-143,1)	(-28,1)	(8,1)	(-1,1)	(1,0)	(1,0)	(1,0)	(1,0)	(1,0)	(1,0)	
L1D -110>	(2,109)	(-10,107)	(29,2)	(4,93)	(111,7)	(43,2)	(107,7)	(5,1)	(41,1)	(0,1)	(82,1)	(3,1)	(-5,1)	(6,1)	(1,0)	(1,0)	
L1D -109>	(8,82)	(0,10)	(1,65)	(111,52)	(108,2)	(107,93)	(113,1)	(-6,4)	(124,1)	(106,0)	(1,0)	(1,0)	(1,0)	(1,0)	(1,0)	(1,0)	
L1D -108>	(1,30)	(-23,51)	(-12,30)	(119,30)	(108,88)	(-5,1)	(0,0)	(2,3)	(384,0)	(106,3)	(-6,0)	(-10,0)	(-9,0)	(-4,0)	(41,0)	(109,0)	
L1D -107>	(-4,9)	(-8,0)	(107,82)	(2,13)	(109,7)	(-3,0)	(1,22)	(8,0)	(124,9)	(130,0)	(0,0)	(1,0)	(1,0)	(1,0)	(1,0)	(1,0)	
L1D -106>	(2,58)	(-5,70)	(-1,49)	(106,55)	(6,1)	(-10,34)	(-7,4)	(107,3)	(108,2)	(8,1)	(19,0)	(103,1)	(29,0)	(4,0)	(85,0)	(112,0)	
L1D -105>	(0,5)	(112,99)	(-2,1)	(1,4)	(-20,1)	(8,2)	(2,8)	(-149,1)	(80,1)	(103,1)	(99,1)	(1,0)	(1,0)	(1,0)	(1,0)	(1,0)	
L1D -104>	(6,2)	(2,10)	(16,1)	(30,1)	(105,8)	(-2,1)	(-3,3)	(75,1)	(25,1)	(85,1)	(108,1)	(8,2)	(101,5)	(19,1)	(15,1)	(45,1)	
L1D -103>	(2,106)	(1,3)	(87,3)	(0,1)	(-2,1)	(5,2)	(99,1)	(6,1)	(1,0)	(1,0)	(1,0)	(1,0)	(1,0)	(1,0)	(1,0)	(1,0)	
L1D -102>	(-3,5)	(16,1)	(101,2)	(103,8)	(77,1)	(6,2)	(106,2)	(0,1)	(99,7)	(5,1)	(80,1)	(-20,1)	(1,1)	(84,1)	(-16,1)	(-26,1)	
L1D -101>	(87,102)	(12,110)	(1,7)	(8,1)	(16,1)	(-53,1)	(4,1)	(5,1)	(15,1)	(30,1)	(-1,1)	(1,0)	(1,0)	(1,0)	(1,0)	(1,0)	
L1D -100>	(2,5)	(98,106)	(6,1)	(100,1)	(-3,5)	(90,1)	(103,1)	(120,1)	(-1,1)	(71,1)	(104,2)	(101,9)	(73,1)	(1,1)	(5,1)	(97,3)	
L1D -99>	(101,110)	(73,1)	(-2,1)	(2,1)	(-9,1)	(-12,0)	(1,1)	(1,0)	(1,0)	(1,0)	(1,0)	(1,0)	(1,0)	(1,0)	(1,0)	(1,0)	
L1D -98>	(50,1)	(-3,1)	(16,1)	(2,2)	(-9,1)	(4,1)	(79,1)	(-2,1)	(0,1)	(99,10)	(95,4)	(5,1)	(8,2)	(1,2)	(-1,1)	(6,1)	
L1D -97>	(18,1)	(1,91)	(96,1)	(-1,0)	(2,0)	(0,0)	(95,0)	(125,0)	(1,0)	(1,0)	(1,0)	(1,0)	(1,0)	(1,0)	(1,0)	(1,0)	
L1D -96>	(96,1)	(287,1)	(-2,2)	(-18,1)	(-8,1)	(25,1)	(2,2)	(5,1)	(97,12)	(100,1)	(15,1)	(1,2)	(51,1)	(93,1)	(8,1)	(1,0)	
L1D -95>	(0,3)	(5,109)	(1,3)	(-10,1)	(-13,2)	(-11,2)	(95,8)	(96,1)	(105,1)	(80,1)	(2,1)	(8,1)	(-25,1)	(1,0)	(1,0)	(1,0)	
L1D -94>	(-42,86)	(-16,1)	(95,9)	(-1,1)	(8,1)	(91,0)	(30,0)	(-5,0)	(2,5)	(1,2)	(1,0)	(1,0)	(1,0)	(1,0)	(1,0)	(1,0)	
L1D -93>	(10,109)	(-33,30)	(5,47)	(45,10)	(94,6)	(2,3)	(102,2)	(-4,1)	(1,3)	(-38,1)	(1,0)	(1,0)	(1,0)	(1,0)	(1,0)	(1,0)	
L1D -92>	(1,2)	(2,13)	(-4,5)	(-3,7)	(91,4)	(90,1)	(6,2)	(8,2)	(-9,2)	(0,1)	(92,1)	(93,1)	(106,1)	(64,1)	(-1,1)	(5,1)	
L1D -91>	(1,21)	(271,1)	(0,6)	(120,100)	(93,1)	(5,100)	(9,1)	(2,1)	(6,1)	(4,1)	(-4,1)	(-5,1)	(8,1)	(1,0)	(1,0)	(1,0)	
L1D -90>	(2,86)	(-4,36)	(-9,40)	(8,2)	(0,6)	(5,2)	(-110,2)	(-16,0)	(75,0)	(154,0)	(-3,2)	(93,0)	(90,2)	(20,0)	(-10,0)	(-25,0)	
L1D -89>	(5,106)	(0,4)	(1,7)	(-19,5)	(6,3)	(9,10)	(2,5)	(90,2)	(-2,1)	(3,2)	(86,3)	(-3,3)	(-14,1)	(-1,1)	(1,0)	(1,0)	
L1D -88>	(6,105)	(2,13)	(1,2)	(73,4)	(-2,3)	(-110,95)	(-3,2)	(0,6)	(8,2)	(-19,1)	(287,1)	(30,1)	(7,1)	(4,2)	(89,1)	(-1,2)	
L1D -87>	(-19,98)	(0,3)	(-6,1)	(-3,4)	(2,3)	(-2,1)	(1,3)	(-5,2)	(86,2)	(10,1)	(87,1)	(35,1)	(75,1)	(-110,1)	(8,2)	(260,1)	
L1D -86>	(0,4)	(2,98)	(192,1)	(-110,41)	(-5,53)	(4,49)	(-15,2)	(85,2)	(-1,1)	(-7,1)	(8,1)	(-169,0)	(30,0)	(1,2)	(1,0)	(1,0)	
L1D -85>	(94,1)	(88,1)	(0,5)	(1,8)	(2,3)	(8,2)	(192,2)	(100,1)	(12,1)	(-3,2)	(-10,1)	(-15,1)	(82,1)	(-11,2)	(85,1)	(-1,1)	
L1D -84>	(34,125)	(234,72)	(-28,1)	(0,33)	(242,34)	(1,36)	(6,0)	(-2,1)	(-15,32)	(-3,0)	(86,1)	(2,2)	(88,0)	(16,0)	(85,0)	(9,0)	
L1D -83>	(230,87)	(79,87)	(63,3)	(92,1)	(84,5)	(-5,1)	(1,0)	(1,0)	(1,0)	(1,0)	(1,0)	(1,0)	(1,0)	(1,0)	(1,0)	(1,0)	
L1D -82>	(-4,11)	(54,1)	(-2,2)	(359,1)	(84,1)	(357,1)	(0,1)	(1,3)	(6,2)	(81,4)	(-3,1)	(2,4)	(30,1)	(83,2)	(110,1)	(50,1)	
L1D -81>	(57,35)	(79,11)	(30,22)	(63,20)	(5,20)	(234,87)	(34,6)	(54,0)	(-4,21)	(44,0)	(2,0)	(4,0)	(1,2)	(1,0)	(1,0)	(1,0)	
L1D -80>	(2,7)	(80,8)	(0,59)	(15,1)	(1,35)	(5,1)	(259,1)	(9,1)	(-84,93)	(-5,2)	(-3,2)	(30,2)	(-1,3)	(8,1)	(50,1)	(-2,4)	
L1D -79>	(-2,57)	(0,111)	(2,2)	(19,1)	(1,1)	(9,2)	(-1,1)	(234,1)	(76,0)	(14,5)	(80,0)	(1,0)	(1,0)	(1,0)	(1,0)	(1,0)	
L1D -78>	(75,2)	(2,6)	(84,1)	(82,3)	(80,1)	(1,38)	(0,10)	(-2,3)	(11,5)	(16,3)	(30,2)	(4,1)	(-54,1)	(-3,1)	(5,4)	(-1,5)	
L1D -77>	(33,87)	(3,87)	(14,48)	(-3,2)	(75,1)	(74,1)	(19,1)	(0,17)	(-12,1)	(-1,1)	(7,1)	(1,1)	(1,0)	(1,0)	(1,0)	(1,0)	
L1D -76>	(2,89)	(33,1)	(65,6)	(75,1)	(-2,1)	(1,1)	(259,0)	(-84,0)	(1,0)	(1,0)	(1,0)	(1,0)	(1,0)	(1,0)	(1,0)	(1,0)	
L1D -75>	(-2,2)	(-5,1)	(85,1)	(351,1)	(78,1)	(-3,1)	(-1,1)	(1,7)	(0,3)	(8,2)	(20,1)	(449,1)	(2,2)	(75,1)	(-183,1)	(72,1)	
L1D -74>	(33,14)	(2,126)	(0,2)	(74,2)	(65,88)	(76,2)	(275,1)	(-3,2)	(349,1)	(1,5)	(259,4)	(-2,1)	(16,1)	(30,1)	(75,2)	(10,1)	
L1D -73>	(1,98)	(-3,0)	(107,0)	(349,0)	(126,0)	(76,0)	(-2,1)	(6,0)	(9,1)	(74,3)	(8,0)	(-14,0)	(1,0)	(1,0)	(1,0)	(1,0)	
L1D -72>	(-115,10)	(5,77)	(76,107)	(1,2)	(-1,1)	(-3,8)	(155,1)	(275,1)	(71,5)	(-2,1)	(259,6)	(2,4)	(-8,2)	(16,1)	(287,1)	(30,2)	
L1D -71>	(9,102)	(66,106)	(-7,106)	(-2,2)	(347,1)	(74,2)	(0,2)	(2,6)	(271,1)	(68,1)	(71,2)	(1,4)	(8,1)	(-1,1)	(1,0)	(1,0)	
L1D -70>	(0,27)	(70,77)	(2,11)	(80,0)	(1,1)	(-115,24)	(64,0)	(-1,1)	(13,1)	(5,0)	(-2,0)	(-3,1)	(259,0)	(110,0)	(30,0)	(20,0)	
L1D -69>	(1,21)	(0,3)	(2,7)	(5,1)	(9,19)	(-3,3)	(66,5)	(72,3)	(6,1)	(70,1)	(271,1)	(4,2)	(3,1)	(20,1)	(-5,1)	(1,0)	
L1D -68>	(4,5)	(0,12)	(2,4)	(-1,8)	(-3,2)	(-2,4)	(1,2)	(259,4)	(-8,1)	(16,2)	(287,1)	(69,1)	(106,1)	(61,1)	(-5,1)	(79,1)	
L1D -67>	(1,85)	(13,1)	(170,1)	(65,1)	(0,2)	(6,0)	(2,0)	(20,0)	(1,0)	(1,0)	(1,0)	(1,0)	(1,0)	(1,0)	(1,0)	(1,0)	
L1D -66>	(2,75)	(4,105)	(63,3)	(70,2)	(15,1)	(259,3)	(1,6)	(-4,34)	(449,1)	(6,1)	(16,1)	(287,1)	(60,1)	(-12,1)	(0,2)	(25,1)	
L1D -65>	(1,14)	(6,95)	(68,2)	(341,1)	(343,1)	(2,3)	(8,4)	(-5,2)	(36,1)	(0,7)	(35,1)	(40,1)	(25,1)	(65,1)	(74,1)	(1,0)	
L1D -64>	(35,0)	(11,53)	(85,0)	(61,0)	(15,0)	(95,1)	(67,1)	(2,80)	(25,0)	(65,0)	(45,0)	(-6,0)	(-4,0)	(58,0)	(1,0)	(1,0)	
L1D -63>	(5,86)	(68,53)	(64,6)	(-3,1)	(9,1)	(72,1)	(-2,1)	(1,1)	(-31,1)	(1,0)	(1,0)	(1,0)	(1,0)	(1,0)	(1,0)	(1,0)	
L1D -62>	(19,86)	(14,1)	(0,95)	(111,57)	(1,53)	(24,1)	(-3,2)	(-1,2)	(170,1)	(2,1)	(66,1)	(339,0)	(64,0)	(259,0)	(1,0)	(1,0)	
L1D -61>	(64,2)	(9,3)	(4,1)	(1,5)	(337,2)	(-193,3)	(-197,4)	(0,1)	(271,1)	(75,1)	(-3,1)	(-1,2)	(43,1)	(1,0)	(1,0)	(1,0)	
L1D -60>	(0,108)	(2,6)	(60,36)	(50,3)	(80,4)	(40,4)	(30,5)	(-3,3)	(10,4)	(-1,2)	(337,2)	(64,2)	(-2,1)	(57,2)	(62,1)	(259,3)	
L1D -59>	(9,13)	(-9,1)	(1,30)	(5,111)	(2,111)	(0,7)	(4,4)	(60,2)	(56,3)	(-79,1)	(-199,4)	(335,1)	(62,4)	(-190,2)	(-20,1)	(44,1)	
L1D -58>	(1,94)	(-2,1)	(0,4)	(-1,6)	(-197,1)	(61,1)	(2,1)	(-199,0)	(62,0)	(60,0)	(8,2)	(259,0)	(1,0)	(1,0)	(1,0)	(1,0)	
L1D -57>	(230,2)	(143,56)	(79,110)	(9,56)	(57,112)	(234,54)	(16,56)	(0,55)	(-13,72)	(155,0)	(-201,0)	(-3,0)	(4,0)	(2,0)	(35,0)	(1,0)	
L1D -56>	(0,2)	(53,2)	(-199,2)	(1,5)	(-17,6)	(13,1)	(-2,2)	(259,1)	(8,3)	(6,1)	(-83,1)	(16,3)	(30,2)	(-5,2)	(10,1)	(58,1)	
L1D -55>	(0,111)	(33,55)	(64,1)	(-40,1)	(2,2)	(-3,0)	(1,2)	(1,0)	(1,0)	(1,0)	(1,0)	(1,0)	(1,0)	(1,0)	(1,0)	(1,0)	
L1D -54>	(41,117)	(0,21)	(19,12)	(2,12)	(5,63)	(-1,1)	(1,111)	(85,1)	(32,108)	(-193,4)	(65,1)	(7,1)	(-3,1)	(-201,1)	(55,2)	(186,1)	
L1D -53>	(-11,43)	(6,98)	(1,4)	(0,5)	(41,35)	(32,14)	(-2,3)	(329,2)	(19,2)	(-4,2)	(54,11)	(-44,1)	(2,1)	(154,1)	(-89,1)	(57,1)	
L1D -52>	(14,2)	(0,3)	(-203,2)	(71,1)	(38,1)	(2,3)	(56,1)	(329,1)	(54,2)	(327,1)	(51,2)	(1,4)	(259,5)	(-3,3)	(105,1)	(16,3)	
L1D -51>	(41,86)	(0,2)	(-1,1)	(9,1)	(2,0)	(1,0)	(-207,0)	(271,0)	(1,0)	(1,0)	(1,0)	(1,0)	(1,0)	(1,0)	(1,0)	(1,0)	
L1D -50>	(0,11)	(35,1)	(3,75)	(38,38)	(50,6)	(2,2)	(5,3)	(-62,94)	(213,1)	(-2,3)	(20,0)	(10,0)	(1,0)	(1,0)	(1,0)	(1,0)	
L1D -49>	(47,2)	(0,64)	(1,72)	(52,1)	(6,2)	(16,0)	(53,0)	(10,0)	(80,0)	(44,14)	(7,21)	(9,7)	(-2,0)	(50,0)	(3,1)	(-209,0)	
L1D -48>	(0,14)	(13,10)	(45,3)	(-207,2)	(40,1)	(-5,2)	(-3,3)	(16,1)	(52,1)	(1,6)	(259,2)	(6,1)	(30,2)	(49,1)	(3,1)	(-1,6)	
L1D -47>	(-3,5)	(2,9)	(1,3)	(6,43)	(0,4)	(47,75)	(17,36)	(-6,43)	(45,1)	(156,1)	(5,109)	(3,3)	(9,9)	(49,41)	(13,41)	(41,1)	
L1D -46>	(-6,87)	(46,86)	(-5,2)	(49,1)	(7,1)	(0,3)	(2,1)	(41,1)	(16,2)	(75,1)	(45,1)	(1,2)	(-1,1)	(1,0)	(1,0)	(1,0)	
L1D -45>	(0,28)	(45,28)	(4,74)	(2,1)	(48,25)	(3,1)	(8,24)	(-9,1)	(-2,1)	(35,1)	(1,0)	(1,0)	(1,0)	(1,0)	(1,0)	(1,0)	
L1D -44>	(54,3)	(23,99)	(-10,3)	(42,44)	(7,1)	(2,5)	(47,1)	(45,1)	(15,1)	(55,1)	(-4,1)	(-22,1)	(5,1)	(41,0)	(-1,0)	(1,4)	
L1D -43>	(-5,7)	(0,1)	(-3,1)	(-215,3)	(41,43)	(1,4)	(-2,8)	(46,3)	(44,8)	(-211,1)	(271,1)	(43,16)	(8,1)	(10,1)	(47,2)	(14,1)	
L1D -42>	(41,60)	(0,100)	(-3,4)	(25,1)	(30,1)	(5,33)	(2,2)	(40,1)	(42,17)	(-5,1)	(-213,0)	(43,5)	(32,71)	(44,0)	(106,0)	(1,1)	
L1D -41>	(0,38)	(2,41)	(5,24)	(-5,21)	(32,46)	(-6,19)	(-4,0)	(4,0)	(-33,72)	(43,3)	(9,0)	(41,10)	(1,2)	(42,0)	(39,0)	(-58,0)	
L1D -40>	(40,80)	(35,6)	(0,126)	(-26,1)	(90,1)	(10,9)	(2,10)	(42,5)	(45,0)	(41,9)	(32,3)	(20,0)	(26,2)	(259,0)	(1,0)	(-10,0)	
L1D -39>	(0,15)	(40,101)	(6,2)	(1,13)	(9,62)	(11,1)	(-5,1)	(-1,17)	(2,4)	(20,2)	(41,1)	(18,2)	(27,3)	(56,2)	(37,2)	(43,0)	
L1D -38>	(-10,86)	(0,7)	(33,52)	(5,1)	(259,1)	(-1,31)	(-7,1)	(-219,1)	(-27,1)	(13,1)	(16,3)	(1,5)	(36,3)	(2,3)	(38,4)	(-2,3)	
L1D -37>	(18,100)	(6,103)	(1,121)	(42,107)	(47,18)	(39,2)	(2,5)	(0,7)	(36,7)	(40,3)	(-10,4)	(-3,10)	(-1,5)	(4,1)	(-8,4)	(-217,3)	
L1D -36>	(38,82)	(15,2)	(-17,41)	(36,2)	(0,1)	(29,10)	(2,10)	(23,9)	(27,10)	(57,1)	(-40,0)	(5,1)	(16,0)	(3,5)	(-1,0)	(1,2)	
L1D -35>	(-3,1)	(16,5)	(42,1)	(1,73)	(2,3)	(-8,43)	(5,43)	(-4,42)	(75,1)	(40,39)	(-239,1)	(38,0)	(0,3)	(-219,0)	(26,0)	(6,0)	
L1D -34>	(16,2)	(1,89)	(55,1)	(4,18)	(5,74)	(2,45)	(0,3)	(31,2)	(57,3)	(9,1)	(-1,2)	(38,1)	(32,1)	(34,3)	(1,0)	(1,0)	
L1D -33>	(75,69)	(38,57)	(30,27)	(6,4)	(32,11)	(2,35)	(-2,60)	(1,45)	(42,6)	(0,95)	(-202,4)	(22,1)	(5,22)	(9,13)	(-5,5)	(23,34)	
L1D -32>	(32,11)	(33,21)	(0,77)	(96,0)	(-4,8)	(9,16)	(22,7)	(-1,1)	(29,0)	(16,0)	(41,3)	(40,14)	(2,0)	(42,3)	(1,0)	(-3,0)	
L1D -31>	(41,95)	(0,101)	(5,53)	(14,53)	(-5,52)	(9,5)	(18,1)	(1,12)	(16,12)	(30,1)	(4,1)	(-223,1)	(-227,3)	(36,1)	(29,1)	(34,1)	
L1D -30>	(-4,2)	(217,64)	(30,91)	(0,51)	(1,103)	(23,36)	(-6,48)	(2,49)	(-8,47)	(18,45)	(5,98)	(27,3)	(-1,2)	(-10,2)	(-2,1)	(-225,2)	
L1D -29>	(0,5)	(1,87)	(18,54)	(28,1)	(2,40)	(5,38)	(14,1)	(6,36)	(41,1)	(-220,0)	(63,0)	(7,0)	(32,0)	(9,8)	(-225,3)	(-3,0)	
L1D -28>	(25,111)	(28,6)	(0,12)	(-5,55)	(1,121)	(5,111)	(6,54)	(132,55)	(-6,55)	(-4,2)	(7,84)	(-1,21)	(2,2)	(-227,5)	(166,1)	(15,2)	
L1D -27>	(6,4)	(5,106)	(26,10)	(0,12)	(1,7)	(12,4)	(-222,6)	(2,4)	(-3,10)	(-227,22)	(-231,5)	(30,6)	(24,1)	(303,1)	(8,2)	(4,4)	
L1D -26>	(-4,27)	(2,103)	(1,29)	(15,27)	(36,20)	(23,1)	(-1,7)	(-9,0)	(25,0)	(24,0)	(0,4)	(26,3)	(5,4)	(-229,0)	(4,0)	(1,0)	
L1D -25>	(1,124)	(15,59)	(6,32)	(115,1)	(25,29)	(-132,1)	(0,2)	(12,1)	(-229,1)	(5,2)	(18,0)	(21,0)	(23,0)	(2,3)	(-5,0)	(-3,0)	
L1D -24>	(22,17)	(9,20)	(1,26)	(28,44)	(-8,22)	(55,2)	(5,108)	(12,26)	(-5,53)	(-9,27)	(2,43)	(-4,27)	(0,4)	(-1,2)	(17,25)	(31,20)	
L1D -23>	(0,15)	(268,2)	(1,4)	(22,2)	(2,20)	(8,13)	(5,13)	(3,1)	(12,26)	(6,25)	(27,14)	(32,12)	(26,13)	(21,1)	(23,124)	(42,1)	
L1D -22>	(7,4)	(22,35)	(23,29)	(21,30)	(0,9)	(209,5)	(204,5)	(2,21)	(5,86)	(1,41)	(225,20)	(26,22)	(55,18)	(-4,19)	(6,20)	(-23,7)	
L1D -21>	(21,2)	(10,52)	(0,35)	(2,55)	(1,103)	(6,24)	(5,77)	(9,55)	(-1,1)	(42,23)	(24,1)	(77,1)	(-5,0)	(15,51)	(26,22)	(-8,23)	
L1D -20>	(20,16)	(0,66)	(28,1)	(70,12)	(5,84)	(24,13)	(-5,12)	(9,12)	(1,13)	(4,11)	(-4,13)	(16,11)	(14,12)	(15,12)	(12,11)	(8,13)	
L1D -19>	(-10,1)	(15,14)	(77,14)	(12,11)	(1,28)	(28,13)	(2,33)	(11,20)	(6,74)	(5,62)	(269,16)	(-5,16)	(-32,16)	(24,15)	(13,3)	(8,15)	
L1D -18>	(2,79)	(10,9)	(-1,14)	(-5,1)	(47,1)	(-115,16)	(6,16)	(1,74)	(5,56)	(-137,1)	(31,3)	(20,1)	(12,18)	(0,1)	(-23,0)	(138,0)	
L1D -17>	(7,1)	(16,1)	(1,88)	(0,1)	(13,3)	(15,4)	(9,8)	(3,62)	(23,42)	(2,2)	(17,1)	(-5,9)	(5,30)	(12,8)	(-10,9)	(131,9)	
L1D -16>	(-1,0)	(14,0)	(-9,4)	(6,13)	(1,0)	(-5,5)	(-12,4)	(3,45)	(-35,4)	(-13,4)	(5,83)	(2,6)	(18,4)	(11,4)	(4,4)	(20,3)	
L1D -15>	(-16,3)	(-1,4)	(0,2)	(2,75)	(30,10)	(4,36)	(136,10)	(9,46)	(-207,12)	(5,91)	(326,12)	(21,12)	(-4,10)	(-8,12)	(17,13)	(8,12)	
L1D -14>	(1,36)	(7,6)	(0,28)	(17,4)	(4,13)	(2,19)	(-6,20)	(9,14)	(204,1)	(-2,5)	(19,13)	(6,12)	(8,73)	(5,66)	(-16,13)	(-23,14)	
L1D -13>	(-36,21)	(18,22)	(1,43)	(26,12)	(70,12)	(17,1)	(11,17)	(6,75)	(19,11)	(7,15)	(2,33)	(14,32)	(5,23)	(9,11)	(-8,5)	(-5,6)	
L1D -12>	(1,85)	(2,64)	(-18,2)	(-39,8)	(-4,1)	(39,9)	(6,56)	(-9,18)	(-1,3)	(7,65)	(-30,3)	(27,9)	(8,9)	(-5,20)	(5,82)	(-17,9)	
L1D -11>	(271,2)	(24,7)	(1,47)	(45,2)	(11,21)	(-4,3)	(0,16)	(2,47)	(22,4)	(-11,4)	(-5,4)	(10,2)	(7,42)	(5,83)	(6,32)	(13,7)	
L1D -10>	(-127,1)	(2,79)	(15,10)	(-20,3)	(144,4)	(7,5)	(8,4)	(1,12)	(10,13)	(-4,3)	(0,4)	(4,8)	(-24,3)	(-15,3)	(-326,3)	(5,54)	
L1D -9>	(4,54)	(19,1)	(5,26)	(14,16)	(-5,5)	(7,8)	(1,122)	(383,3)	(-9,5)	(-11,4)	(24,7)	(-12,3)	(2,16)	(9,12)	(15,41)	(-16,6)	
L1D -8>	(1,15)	(2,19)	(-5,56)	(50,3)	(0,13)	(-14,18)	(-119,1)	(7,12)	(13,34)	(-6,39)	(8,107)	(-13,1)	(4,127)	(12,80)	(-32,45)	(-16,6)	
L1D -7>	(5,37)	(0,2)	(2,94)	(-131,1)	(-12,4)	(-5,87)	(122,4)	(-13,2)	(1,17)	(11,60)	(9,25)	(7,17)	(16,13)	(6,57)	(-9,6)	(-10,10)	
L1D -6>	(-14,1)	(8,30)	(1,104)	(2,49)	(5,46)	(23,9)	(-5,44)	(-8,19)	(6,77)	(9,44)	(19,10)	(-17,15)	(-9,14)	(-4,64)	(4,31)	(-7,15)	
L1D -5>	(5,83)	(16,1)	(43,3)	(2,93)	(1,36)	(-5,34)	(10,8)	(-4,5)	(-13,7)	(-11,5)	(15,6)	(-8,4)	(-26,5)	(9,12)	(-7,7)	(-16,8)	
L1D -4>	(4,25)	(0,1)	(2,100)	(-4,10)	(1,10)	(17,3)	(-13,2)	(-16,5)	(-17,3)	(-11,4)	(-112,3)	(8,12)	(9,9)	(19,3)	(-5,12)	(-7,4)	
L1D -3>	(1,107)	(4,5)	(2,7)	(-1,8)	(-10,25)	(0,14)	(-78,1)	(-2,25)	(-6,80)	(8,3)	(50,4)	(13,8)	(-11,19)	(3,15)	(5,5)	(-40,3)	
L1D -2>	(0,13)	(-11,1)	(3,1)	(-41,1)	(1,11)	(2,119)	(-38,1)	(9,4)	(22,1)	(-98,1)	(5,3)	(-36,28)	(-19,1)	(17,1)	(-13,0)	(-49,0)	
L1D -1>	(1,86)	(5,1)	(-298,1)	(-274,1)	(107,2)	(6,2)	(-1,4)	(9,4)	(-33,0)	(-36,0)	(-142,1)	(-31,0)	(-13,6)	(2,0)	(-3,1)	(0,8)	
L1D 0>	(-4,1)	(0,82)	(-7,1)	(15,1)	(-93,0)	(-447,0)	(-263,0)	(6,1)	(121,0)	(-268,0)	(9,1)	(1,3)	(-40,0)	(-2,0)	(111,0)	(-184,0)	
L1D 1>	(1,94)	(4,22)	(8,14)	(-6,17)	(-7,9)	(-11,4)	(-14,4)	(2,31)	(-1,45)	(269,1)	(3,8)	(-9,10)	(-10,4)	(5,31)	(6,2)	(0,8)	
L1D 2>	(4,109)	(1,7)	(6,0)	(-84,0)	(2,113)	(-300,0)	(-4,0)	(-13,0)	(-150,0)	(8,7)	(3,3)	(-2,0)	(43,0)	(-81,0)	(-240,0)	(-6,1)	
L1D 3>	(1,85)	(-9,35)	(2,58)	(-23,1)	(-84,46)	(0,29)	(9,7)	(107,3)	(-5,28)	(6,36)	(28,3)	(13,31)	(5,33)	(3,20)	(-122,3)	(-7,31)	
L1D 4>	(0,0)	(-240,0)	(1,0)	(-9,0)	(-5,0)	(-21,0)	(19,0)	(-8,0)	(5,0)	(-4,0)	(2,93)	(4,0)	(8,5)	(-510,0)	(-30,0)	(-20,0)	
L1D 5>	(-5,29)	(2,43)	(1,89)	(10,2)	(-480,1)	(-36,3)	(4,5)	(5,58)	(6,32)	(-14,2)	(-13,9)	(-9,33)	(-6,7)	(-10,18)	(13,7)	(-11,8)	
L1D 6>	(1,48)	(9,0)	(-20,1)	(8,9)	(4,0)	(-14,2)	(-11,11)	(10,3)	(-6,15)	(5,7)	(7,2)	(-28,1)	(107,1)	(-12,4)	(2,77)	(6,8)	
L1D 7>	(-7,11)	(-12,19)	(1,69)	(2,16)	(-25,3)	(-15,15)	(-182,3)	(-151,3)	(-189,1)	(161,3)	(4,7)	(-18,3)	(-19,7)	(-13,7)	(3,21)	(5,7)	
L1D 8>	(3,0)	(5,4)	(-504,2)	(0,0)	(2,18)	(7,0)	(-53,0)	(12,0)	(-8,2)	(6,15)	(18,0)	(-12,0)	(-19,0)	(-13,1)	(-4,5)	(8,114)	
L1D 9>	(1,36)	(9,14)	(-9,18)	(2,80)	(5,104)	(-5,91)	(-18,6)	(-13,6)	(7,14)	(0,6)	(-28,4)	(15,6)	(12,9)	(6,13)	(-4,103)	(-78,1)	
L1D 10>	(-33,4)	(-21,33)	(-3,26)	(0,29)	(5,10)	(-11,8)	(-16,4)	(1,70)	(-44,8)	(-10,79)	(18,1)	(-7,36)	(-5,89)	(28,6)	(2,38)	(-6,40)	
L1D 11>	(0,120)	(1,20)	(-30,1)	(260,20)	(-9,9)	(-1,5)	(-11,103)	(19,3)	(-13,6)	(-6,29)	(2,91)	(330,3)	(-15,19)	(4,15)	(9,44)	(13,26)	
L1D 12>	(1,65)	(2,78)	(-65,1)	(-5,14)	(-1,8)	(-4,45)	(-7,44)	(14,14)	(-19,17)	(-8,32)	(5,75)	(6,15)	(9,15)	(128,4)	(-10,34)	(10,13)	
L1D 13>	(-13,61)	(-16,94)	(6,22)	(7,4)	(258,6)	(1,36)	(-20,1)	(-17,10)	(2,68)	(-8,53)	(-9,30)	(-7,31)	(5,4)	(-4,18)	(-6,10)	(-84,10)	
L1D 14>	(-12,5)	(-1,51)	(-8,19)	(-24,1)	(1,26)	(-14,12)	(-9,18)	(5,30)	(-5,9)	(2,74)	(-10,10)	(206,10)	(6,9)	(11,10)	(33,9)	(-30,10)	
L1D 15>	(-20,16)	(-6,8)	(-15,17)	(-17,1)	(1,127)	(6,26)	(5,36)	(132,8)	(-11,8)	(-23,10)	(348,9)	(-7,8)	(4,4)	(14,7)	(-5,25)	(7,8)	
L1D 16>	(1,100)	(-21,1)	(-16,13)	(-8,37)	(2,24)	(0,61)	(-7,33)	(-13,34)	(-11,73)	(9,33)	(6,70)	(-6,36)	(4,68)	(18,34)	(5,111)	(-5,75)	
L1D 17>	(0,7)	(-36,6)	(2,58)	(-1,48)	(-364,13)	(-292,115)	(-11,26)	(-13,27)	(-9,30)	(8,26)	(-280,28)	(87,26)	(-71,26)	(-8,127)	(-15,1)	(5,54)	
L1D 18>	(-8,23)	(-3,1)	(1,91)	(-26,23)	(-12,46)	(-5,44)	(-209,24)	(2,52)	(6,23)	(-7,25)	(9,23)	(-10,25)	(-16,1)	(5,44)	(-9,24)	(-13,3)	
L1D 19>	(-7,9)	(1,100)	(323,9)	(-30,9)	(-29,17)	(-8,13)	(81,19)	(2,40)	(11,19)	(6,19)	(5,19)	(-5,39)	(-15,20)	(-11,19)	(-12,1)	(-14,18)	
L1D 20>	(-20,44)	(0,44)	(-7,8)	(-14,4)	(184,3)	(323,22)	(-24,22)	(2,66)	(-56,2)	(50,0)	(107,21)	(-4,23)	(5,22)	(-13,21)	(-9,21)	(-1,1)	
L1D 21>	(1,71)	(3,10)	(-22,44)	(0,12)	(107,19)	(-6,20)	(-12,1)	(2,5)	(-1,0)	(5,0)	(-21,1)	(95,0)	(-5,1)	(-8,1)	(9,1)	(174,0)	
L1D 22>	(1,43)	(-22,69)	(288,2)	(-30,12)	(2,86)	(0,25)	(-5,12)	(-18,36)	(-24,11)	(85,1)	(5,69)	(-20,1)	(-1,7)	(132,1)	(-4,20)	(6,2)	
L1D 23>	(-10,0)	(-20,24)	(-33,3)	(0,25)	(1,50)	(-22,7)	(-5,9)	(-23,96)	(-301,1)	(-8,9)	(10,1)	(-26,1)	(174,2)	(17,9)	(-6,9)	(-29,0)	
L1D 24>	(-33,9)	(1,37)	(10,126)	(-2,5)	(132,60)	(6,60)	(31,62)	(22,54)	(-9,65)	(288,61)	(-20,63)	(-1,2)	(-4,2)	(-15,15)	(2,10)	(0,1)	
L1D 25>	(13,77)	(5,50)	(-30,50)	(1,9)	(0,5)	(107,50)	(-5,25)	(-29,4)	(-26,2)	(-1,5)	(-23,8)	(-2,1)	(-254,1)	(168,2)	(-301,47)	(-25,45)	
L1D 26>	(-28,9)	(-135,52)	(2,65)	(1,58)	(-5,5)	(10,38)	(-13,1)	(5,55)	(-9,19)	(8,56)	(-7,52)	(4,55)	(-21,54)	(-18,43)	(-33,8)	(0,42)	
L1D 27>	(2,98)	(-7,48)	(1,51)	(-24,45)	(-95,1)	(-1,8)	(-18,1)	(-33,1)	(-26,1)	(4,45)	(3,1)	(-2,1)	(0,1)	(7,3)	(-9,1)	(-29,1)	
L1D 28>	(-33,44)	(10,33)	(0,34)	(-3,68)	(-26,1)	(1,84)	(2,45)	(4,41)	(5,1)	(-22,1)	(107,1)	(-36,1)	(-258,1)	(-276,1)	(12,1)	(40,1)	
L1D 29>	(5,85)	(3,84)	(-19,12)	(1,7)	(9,2)	(-33,52)	(0,2)	(-1,6)	(-95,1)	(206,1)	(6,1)	(131,51)	(-8,52)	(-5,1)	(2,1)	(-3,0)	
L1D 30>	(-33,38)	(2,84)	(-22,27)	(0,22)	(11,53)	(-30,11)	(-31,1)	(-138,28)	(6,28)	(3,2)	(-10,27)	(-9,10)	(257,2)	(-274,1)	(1,13)	(84,1)	
L1D 31>	(1,95)	(-12,1)	(-15,22)	(-95,0)	(-1,0)	(3,0)	(-10,0)	(-2,0)	(6,1)	(10,0)	(-254,0)	(-50,0)	(-240,1)	(-28,0)	(-29,1)	(-34,0)	
L1D 32>	(-1,1)	(-32,99)	(0,2)	(32,0)	(-5,7)	(-198,0)	(-62,0)	(96,0)	(128,0)	(6,0)	(1,12)	(-12,7)	(-171,0)	(16,0)	(266,0)	(-148,0)	
L1D 33>	(-1,49)	(10,4)	(15,4)	(265,5)	(6,29)	(-149,5)	(-33,111)	(-381,48)	(1,6)	(-9,32)	(-240,27)	(-26,46)	(42,9)	(0,2)	(-12,29)	(107,27)	
L1D 34>	(3,108)	(-34,1)	(-274,1)	(-33,3)	(6,1)	(0,0)	(-4,0)	(-50,0)	(-36,0)	(-30,0)	(-1,0)	(-20,0)	(1,1)	(1,0)	(1,0)	(1,0)	
L1D 35>	(-35,14)	(46,87)	(7,87)	(1,2)	(5,104)	(-19,6)	(107,11)	(9,1)	(0,3)	(143,50)	(-3,0)	(-33,4)	(-249,1)	(-45,0)	(-2,4)	(-10,0)	
L1D 36>	(-20,4)	(0,100)	(-5,53)	(-3,104)	(5,2)	(-35,1)	(-52,2)	(-17,3)	(2,6)	(-33,80)	(-38,1)	(-34,2)	(-2,1)	(3,2)	(-4,1)	(-36,1)	
L1D 37>	(5,43)	(10,24)	(2,6)	(-30,1)	(-39,64)	(-6,44)	(-18,3)	(-45,1)	(216,0)	(1,1)	(-3,1)	(-5,1)	(7,41)	(-24,0)	(-2,0)	(81,0)	
L1D 38>	(-2,91)	(-274,2)	(-38,2)	(6,1)	(2,11)	(-4,10)	(-40,3)	(-36,5)	(-5,0)	(-39,0)	(1,3)	(8,0)	(1,0)	(1,0)	(1,0)	(1,0)	
L1D 39>	(2,5)	(1,113)	(5,7)	(-63,0)	(-5,34)	(-18,31)	(-37,1)	(-41,1)	(-1,0)	(0,1)	(9,2)	(17,1)	(-22,0)	(-13,5)	(-249,0)	(1,0)	
L1D 40>	(-40,64)	(-8,28)	(1,0)	(0,1)	(-5,0)	(-38,6)	(-30,6)	(-2,0)	(2,0)	(-20,0)	(-3,0)	(1,0)	(1,0)	(1,0)	(1,0)	(1,0)	
L1D 41>	(-41,104)	(11,58)	(-55,58)	(8,29)	(4,28)	(14,28)	(-2,1)	(1,29)	(-12,35)	(-19,36)	(-47,39)	(-39,6)	(6,2)	(-1,1)	(-40,1)	(2,19)	
L1D 42>	(-2,3)	(-44,0)	(41,0)	(-47,1)	(1,16)	(0,14)	(-50,5)	(-34,15)	(2,17)	(-42,68)	(-58,0)	(-5,0)	(-1,1)	(-10,14)	(-112,2)	(4,0)	
L1D 43>	(-3,10)	(-2,3)	(-254,0)	(-1,1)	(6,19)	(9,21)	(-10,20)	(0,3)	(-44,0)	(1,2)	(-36,1)	(-249,0)	(5,1)	(2,99)	(-43,3)	(7,0)	
L1D 44>	(10,99)	(30,1)	(5,46)	(2,46)	(-28,1)	(0,2)	(-17,2)	(-1,2)	(-43,2)	(-20,2)	(-5,1)	(-44,2)	(-40,0)	(-60,0)	(-30,0)	(1,3)	
L1D 45>	(-45,111)	(-131,55)	(1,56)	(-37,1)	(0,2)	(-47,3)	(-43,3)	(-2,3)	(-41,1)	(9,3)	(-20,1)	(-3,1)	(-65,1)	(-46,1)	(1,0)	(1,0)	
L1D 46>	(-31,87)	(-108,86)	(2,55)	(5,1)	(75,1)	(-23,1)	(0,2)	(-42,3)	(-44,1)	(-46,2)	(88,0)	(-43,1)	(-3,1)	(-49,0)	(1,0)	(1,0)	
L1D 47>	(-77,31)	(0,104)	(-44,1)	(-47,26)	(-366,23)	(-46,1)	(-394,57)	(-358,24)	(-23,0)	(-42,3)	(-3,0)	(-1,0)	(1,0)	(1,0)	(1,0)	(1,0)	
L1D 48>	(-108,86)	(-5,1)	(-3,0)	(-64,0)	(0,0)	(-50,0)	(4,0)	(6,0)	(-49,0)	(1,0)	(1,0)	(1,0)	(1,0)	(1,0)	(1,0)	(1,0)	
L1D 49>	(9,11)	(0,3)	(2,6)	(5,93)	(-249,6)	(1,15)	(16,1)	(-2,3)	(4,2)	(222,1)	(-7,1)	(-133,1)	(-3,1)	(-1,1)	(1,0)	(1,0)	
L1D 50>	(-47,117)	(-45,122)	(0,19)	(-50,113)	(2,1)	(-3,1)	(-57,6)	(-70,5)	(-41,26)	(-5,1)	(-2,2)	(-6,2)	(1,3)	(1,0)	(1,0)	(1,0)	
L1D 51>	(1,89)	(-5,1)	(-254,1)	(-3,1)	(-119,0)	(0,0)	(9,2)	(-64,0)	(-249,2)	(-74,0)	(2,1)	(-51,0)	(-19,0)	(53,0)	(-84,0)	(-79,0)	
L1D 52>	(-50,109)	(-1,8)	(0,14)	(-51,1)	(2,12)	(205,6)	(-54,1)	(-2,3)	(6,1)	(4,2)	(-68,2)	(81,1)	(-3,1)	(-154,1)	(1,3)	(-52,1)	
L1D 53>	(-254,1)	(1,85)	(-54,1)	(-1,1)	(-23,1)	(-3,2)	(9,0)	(0,0)	(-45,0)	(1,0)	(1,0)	(1,0)	(1,0)	(1,0)	(1,0)	(1,0)	
L1D 54>	(-44,5)	(2,102)	(-47,24)	(9,4)	(0,2)	(10,2)	(-56,3)	(203,6)	(8,2)	(4,2)	(-1,2)	(30,2)	(-70,2)	(1,4)	(-54,4)	(-2,1)	
L1D 55>	(0,3)	(-23,100)	(1,6)	(-56,3)	(3,3)	(-59,1)	(-1,5)	(198,1)	(2,1)	(-249,1)	(-53,12)	(-54,1)	(-3,3)	(-27,1)	(-2,1)	(9,3)	
L1D 56>	(2,10)	(-4,14)	(3,4)	(9,6)	(1,2)	(0,2)	(-58,3)	(201,4)	(6,3)	(-72,4)	(-3,2)	(-11,1)	(-53,1)	(-59,1)	(1,0)	(1,0)	
L1D 57>	(-57,119)	(173,25)	(6,36)	(0,1)	(-4,35)	(-70,15)	(2,1)	(1,1)	(-10,1)	(-2,2)	(1,0)	(1,0)	(1,0)	(1,0)	(1,0)	(1,0)	
L1D 58>	(-3,8)	(-59,5)	(1,3)	(0,4)	(-60,4)	(96,1)	(199,2)	(81,1)	(-88,1)	(4,2)	(6,1)	(8,1)	(-74,2)	(-10,1)	(-54,1)	(1,0)	
L1D 59>	(-5,95)	(1,15)	(-254,2)	(0,2)	(-1,5)	(9,18)	(4,1)	(-3,1)	(-60,1)	(-35,1)	(1,0)	(1,0)	(1,0)	(1,0)	(1,0)	(1,0)	
L1D 60>	(0,95)	(-61,1)	(-60,40)	(-2,3)	(-1,10)	(-58,3)	(-30,3)	(-70,3)	(-20,2)	(2,3)	(-62,4)	(197,3)	(-3,3)	(6,2)	(-76,2)	(10,1)	
L1D 61>	(-408,6)	(1,6)	(-58,1)	(0,126)	(5,1)	(-61,1)	(-5,1)	(9,0)	(1,0)	(1,0)	(1,0)	(1,0)	(1,0)	(1,0)	(1,0)	(1,0)	
L1D 62>	(2,112)	(5,106)	(1,6)	(-62,57)	(0,8)	(-64,4)	(195,4)	(-1,3)	(4,3)	(6,1)	(9,2)	(-78,5)	(-5,2)	(-46,1)	(-3,2)	(-2,1)	
L1D 63>	(5,9)	(-310,104)	(0,79)	(-254,1)	(-1,9)	(-3,4)	(2,5)	(-64,2)	(4,1)	(-29,1)	(-62,1)	(228,1)	(-63,2)	(190,1)	(-5,1)	(-127,1)	
L1D 64>	(6,6)	(-17,40)	(0,5)	(-66,4)	(193,3)	(-4,4)	(8,2)	(4,3)	(-63,3)	(10,2)	(1,2)	(-50,3)	(-2,1)	(-62,2)	(-20,1)	(-64,1)	
L1D 65>	(5,101)	(1,2)	(-3,1)	(-50,1)	(0,4)	(-1,1)	(2,1)	(71,1)	(188,2)	(3,1)	(-63,9)	(9,2)	(-40,1)	(-66,1)	(-2,1)	(1,0)	
L1D 66>	(6,121)	(-104,1)	(-5,57)	(-4,57)	(-3,1)	(9,3)	(2,4)	(1,2)	(-1,1)	(-62,1)	(-63,1)	(0,1)	(-85,1)	(-96,0)	(-68,0)	(4,0)	
L1D 67>	(9,91)	(-66,1)	(-2,1)	(-99,0)	(6,0)	(4,0)	(30,0)	(1,0)	(1,0)	(1,0)	(1,0)	(1,0)	(1,0)	(1,0)	(1,0)	(1,0)	
L1D 68>	(2,111)	(0,5)	(-69,5)	(1,5)	(-3,4)	(-70,6)	(189,4)	(-62,3)	(4,4)	(8,1)	(6,1)	(81,1)	(-84,1)	(-4,1)	(1,0)	(1,0)	
L1D 69>	(1,7)	(3,2)	(-2,1)	(2,1)	(9,11)	(-69,1)	(-3,1)	(-249,1)	(0,3)	(-25,1)	(4,1)	(1,0)	(1,0)	(1,0)	(1,0)	(1,0)	
L1D 70>	(-2,1)	(0,28)	(2,35)	(-78,9)	(-70,64)	(-6,44)	(-80,0)	(-57,28)	(-72,1)	(-1,2)	(187,0)	(8,0)	(-74,0)	(-71,1)	(-86,0)	(-40,1)	
L1D 71>	(40,1)	(1,31)	(0,8)	(10,1)	(2,1)	(-3,4)	(-70,4)	(-68,3)	(6,6)	(-71,1)	(-1,1)	(-55,1)	(9,2)	(-84,1)	(-225,1)	(-67,1)	
L1D 72>	(0,8)	(-80,37)	(2,11)	(-74,6)	(185,1)	(6,1)	(4,1)	(8,1)	(-70,4)	(-72,3)	(-88,2)	(-2,2)	(-56,1)	(-1,1)	(1,1)	(1,0)	
L1D 73>	(-71,1)	(5,110)	(-63,108)	(4,1)	(6,92)	(0,2)	(-3,3)	(1,3)	(36,1)	(-19,1)	(-74,1)	(180,1)	(-64,1)	(-227,1)	(-40,1)	(9,2)	
L1D 74>	(2,3)	(-50,2)	(-76,5)	(1,4)	(183,3)	(-70,95)	(6,2)	(-1,2)	(4,2)	(-95,1)	(-90,1)	(-36,1)	(9,3)	(-73,4)	(-75,2)	(-56,1)	
L1D 75>	(-112,41)	(0,37)	(-449,7)	(-50,63)	(-16,1)	(-59,1)	(1,1)	(-1,1)	(9,3)	(-249,1)	(3,2)	(4,1)	(-2,2)	(-3,3)	(11,1)	(-73,5)	
L1D 76>	(3,27)	(2,20)	(-8,49)	(-74,70)	(6,116)	(181,3)	(0,3)	(-114,1)	(-3,1)	(-64,1)	(-75,1)	(-40,0)	(-73,1)	(-72,1)	(84,4)	(-79,0)	
L1D 77>	(2,75)	(1,4)	(6,25)	(-449,35)	(5,12)	(15,0)	(-10,0)	(176,0)	(0,0)	(-34,0)	(1,0)	(1,0)	(1,0)	(1,0)	(1,0)	(1,0)	
L1D 78>	(-3,5)	(2,8)	(5,1)	(84,101)	(-80,2)	(179,3)	(0,4)	(-79,4)	(6,17)	(-94,2)	(-78,2)	(-62,2)	(-8,32)	(1,1)	(7,1)	(-4,1)	
L1D 79>	(5,73)	(1,22)	(-70,0)	(2,84)	(-77,0)	(-83,0)	(-5,0)	(-89,0)	(70,0)	(1,0)	(1,0)	(1,0)	(1,0)	(1,0)	(1,0)	(1,0)	
L1D 80>	(-4,105)	(-80,7)	(0,36)	(177,6)	(2,16)	(-81,1)	(179,1)	(1,5)	(-77,1)	(-50,2)	(-1,5)	(-10,2)	(-3,1)	(10,2)	(25,1)	(-60,3)	
L1D 81>	(5,101)	(1,3)	(0,1)	(9,2)	(-81,2)	(-84,2)	(-1,1)	(2,5)	(-139,1)	(-80,3)	(-42,1)	(-3,1)	(1,0)	(1,0)	(1,0)	(1,0)	
L1D 82>	(-8,18)	(-1,2)	(2,16)	(-89,105)	(175,5)	(177,2)	(-102,1)	(0,2)	(5,3)	(-62,1)	(29,1)	(-98,1)	(-82,1)	(-68,1)	(-2,2)	(25,1)	
L1D 83>	(2,73)	(1,21)	(-8,27)	(0,4)	(303,35)	(250,1)	(-284,3)	(26,1)	(-9,8)	(-84,3)	(-82,1)	(-249,2)	(-90,1)	(-1,1)	(-3,5)	(249,62)	
L1D 84>	(-5,110)	(-84,1)	(-83,1)	(-8,38)	(2,47)	(-284,45)	(-70,1)	(-10,2)	(284,1)	(0,1)	(-1,2)	(1,2)	(-19,1)	(-95,1)	(-48,1)	(-25,1)	
L1D 85>	(0,6)	(5,1)	(1,14)	(-9,85)	(-83,9)	(-125,1)	(-249,1)	(-1,1)	(-5,1)	(2,1)	(-105,1)	(-86,2)	(9,2)	(-2,1)	(1,0)	(1,0)	
L1D 86>	(2,79)	(-4,1)	(5,41)	(-85,0)	(-90,0)	(9,1)	(-102,0)	(156,1)	(1,1)	(-83,0)	(-217,2)	(-29,0)	(-86,1)	(3,0)	(0,0)	(1,0)	
L1D 87>	(-4,103)	(0,13)	(16,1)	(-14,1)	(-87,1)	(107,97)	(2,2)	(-1,1)	(-3,3)	(-2,3)	(-30,1)	(-217,1)	(1,2)	(-85,1)	(-86,1)	(1,0)	
L1D 88>	(2,11)	(4,1)	(-217,96)	(9,109)	(-65,107)	(-452,109)	(-3,6)	(-104,2)	(-86,5)	(-89,3)	(1,2)	(-64,1)	(0,1)	(1,0)	(1,0)	(1,0)	
L1D 89>	(1,5)	(-2,2)	(9,2)	(-1,1)	(-3,1)	(0,1)	(-210,1)	(1,0)	(1,0)	(1,0)	(1,0)	(1,0)	(1,0)	(1,0)	(1,0)	(1,0)	
L1D 90>	(4,5)	(-86,95)	(-55,1)	(0,19)	(-106,1)	(2,9)	(-2,2)	(-3,2)	(1,2)	(-1,2)	(-60,1)	(-90,8)	(-88,1)	(3,2)	(-24,1)	(-15,1)	
L1D 91>	(4,81)	(-91,1)	(9,1)	(-249,0)	(-3,0)	(-69,0)	(1,0)	(1,0)	(1,0)	(1,0)	(1,0)	(1,0)	(1,0)	(1,0)	(1,0)	(1,0)	
L1D 92>	(-99,18)	(-92,2)	(1,3)	(2,17)	(-108,2)	(-24,1)	(-88,1)	(-134,1)	(-90,2)	(-58,1)	(4,1)	(0,1)	(1,0)	(1,0)	(1,0)	(1,0)	
L1D 93>	(-88,3)	(1,1)	(-3,5)	(-10,1)	(-94,1)	(9,1)	(0,4)	(-89,1)	(160,1)	(3,1)	(-31,1)	(-30,1)	(-50,1)	(30,1)	(2,1)	(1,0)	
L1D 94>	(-90,100)	(1,98)	(2,3)	(-94,1)	(-3,1)	(0,6)	(4,1)	(-58,1)	(28,1)	(9,1)	(-93,2)	(-50,2)	(-70,2)	(-30,1)	(-40,2)	(-89,1)	
L1D 95>	(-95,1)	(0,4)	(-3,6)	(158,2)	(-10,2)	(-93,9)	(1,2)	(-30,2)	(-92,2)	(9,2)	(-22,2)	(-42,2)	(-50,2)	(3,6)	(-27,2)	(-20,4)	
L1D 96>	(2,6)	(-92,2)	(-91,99)	(-3,4)	(-126,1)	(3,2)	(-154,1)	(-99,2)	(-95,1)	(-149,1)	(1,3)	(0,1)	(-1,1)	(88,1)	(-5,1)	(-63,1)	
L1D 97>	(-96,1)	(-91,11)	(-3,2)	(186,1)	(-89,1)	(-159,1)	(1,2)	(0,6)	(-22,1)	(-24,1)	(3,11)	(-26,3)	(-28,2)	(-30,2)	(-40,1)	(-48,1)	
L1D 98>	(140,86)	(2,51)	(-100,1)	(-1,1)	(-106,1)	(5,2)	(9,1)	(1,0)	(1,0)	(1,0)	(1,0)	(1,0)	(1,0)	(1,0)	(1,0)	(1,0)	
L1D 99>	(13,1)	(-93,95)	(-11,42)	(3,2)	(-95,1)	(8,0)	(-27,0)	(-28,0)	(-31,0)	(-32,0)	(-50,2)	(-20,0)	(0,1)	(1,2)	(1,0)	(1,0)	
L1D 100>	(-86,1)	(1,13)	(-62,1)	(9,2)	(0,1)	(-98,1)	(-55,1)	(-70,1)	(4,1)	(-75,1)	(-34,1)	(-90,1)	(-2,2)	(-101,1)	(1,0)	(1,0)	
L1D 101>	(-118,87)	(-201,86)	(3,4)	(-97,1)	(272,1)	(-27,0)	(-28,0)	(-41,0)	(-54,0)	(0,0)	(-62,0)	(-22,0)	(-24,0)	(1,0)	(-50,0)	(-100,0)	
L1D 102>	(-93,7)	(-31,83)	(-102,3)	(2,1)	(-101,1)	(1,0)	(1,0)	(1,0)	(1,0)	(1,0)	(1,0)	(1,0)	(1,0)	(1,0)	(1,0)	(1,0)	
L1D 103>	(-31,4)	(8,105)	(-17,1)	(-104,2)	(4,1)	(-5,1)	(-9,1)	(-249,1)	(9,1)	(1,1)	(3,16)	(-20,2)	(-23,1)	(-24,2)	(-26,1)	(-28,1)	
L1D 104>	(4,106)	(2,7)	(9,2)	(5,9)	(-1,1)	(-3,1)	(-33,1)	(-36,1)	(-85,1)	(1,1)	(-212,1)	(-106,2)	(0,1)	(1,0)	(1,0)	(1,0)	
L1D 105>	(0,109)	(-212,107)	(-107,117)	(-23,2)	(1,2)	(17,3)	(-30,1)	(-31,1)	(-34,1)	(-40,1)	(-48,2)	(-54,2)	(3,9)	(-22,1)	(-27,1)	(-28,2)	
L1D 106>	(2,71)	(-113,76)	(-112,43)	(5,83)	(-280,3)	(-448,2)	(-450,2)	(77,2)	(-130,2)	(-106,40)	(-107,81)	(161,35)	(-125,0)	(-109,0)	(-12,0)	(-3,0)	
L1D 107>	(161,0)	(-2,0)	(2,82)	(-121,7)	(-117,7)	(-113,7)	(-112,6)	(-357,5)	(-106,8)	(-130,7)	(-107,56)	(17,6)	(77,7)	(-450,6)	(-280,7)	(-448,7)	
L1D 108>	(3,0)	(6,8)	(1,4)	(2,37)	(-108,113)	(5,1)	(-113,1)	(-109,2)	(-3,0)	(0,1)	(30,0)	(-30,0)	(1,0)	(1,0)	(1,0)	(1,0)	
L1D 109>	(2,53)	(-107,54)	(-161,53)	(6,88)	(-117,24)	(1,4)	(7,1)	(3,2)	(0,1)	(-127,1)	(-22,0)	(-24,0)	(-2,1)	(-27,0)	(-28,0)	(-30,0)	
L1D 110>	(2,81)	(4,2)	(-4,1)	(-111,1)	(-30,0)	(-7,3)	(-29,0)	(1,0)	(1,0)	(1,0)	(1,0)	(1,0)	(1,0)	(1,0)	(1,0)	(1,0)	
L1D 111>	(2,11)	(-4,66)	(4,33)	(5,3)	(10,0)	(-113,10)	(7,30)	(-74,7)	(1,1)	(-22,0)	(3,2)	(-41,72)	(0,0)	(-108,0)	(-117,0)	(-5,0)	
L1D 112>	(-99,92)	(-5,42)	(-7,37)	(0,1)	(-111,1)	(2,3)	(1,1)	(4,0)	(1,0)	(1,0)	(1,0)	(1,0)	(1,0)	(1,0)	(1,0)	(1,0)	
L1D 113>	(1,19)	(0,14)	(14,11)	(2,4)	(25,1)	(-1,4)	(-28,2)	(3,3)	(-32,1)	(-100,1)	(-24,1)	(-26,1)	(-113,69)	(-114,4)	(4,1)	(-4,1)	
L1D 114>	(-98,1)	(-84,6)	(149,1)	(2,113)	(-22,1)	(-28,1)	(-2,1)	(-3,1)	(-96,1)	(-108,1)	(9,2)	(1,1)	(30,3)	(-107,1)	(-70,1)	(1,0)	
L1D 115>	(0,3)	(2,43)	(-56,1)	(1,90)	(-112,43)	(89,0)	(-25,0)	(21,0)	(1,0)	(1,0)	(1,0)	(1,0)	(1,0)	(1,0)	(1,0)	(1,0)	
L1D 116>	(-86,1)	(1,109)	(2,12)	(30,100)	(3,1)	(-3,1)	(23,1)	(-117,4)	(-115,1)	(-112,1)	(-24,1)	(-77,1)	(-111,1)	(-116,1)	(1,0)	(1,0)	
L1D 117>	(1,110)	(-117,98)	(2,7)	(136,1)	(15,2)	(-1,2)	(-3,2)	(1,0)	(1,0)	(1,0)	(1,0)	(1,0)	(1,0)	(1,0)	(1,0)	(1,0)	
L1D 118>	(5,3)	(2,114)	(-111,109)	(4,1)	(-118,1)	(6,1)	(-3,2)	(-4,2)	(0,1)	(-284,4)	(1,0)	(1,0)	(1,0)	(1,0)	(1,0)	(1,0)	
L1D 119>	(15,108)	(1,115)	(88,93)	(2,8)	(-284,93)	(-3,1)	(-249,1)	(-118,1)	(0,4)	(-5,1)	(1,0)	(1,0)	(1,0)	(1,0)	(1,0)	(1,0)	
L1D 120>	(-4,106)	(5,107)	(-22,3)	(-3,2)	(-305,100)	(4,7)	(0,1)	(-19,1)	(-1,1)	(-107,1)	(-227,1)	(-102,1)	(-2,1)	(1,1)	(1,0)	(1,0)	
L1D 121>	(2,13)	(-106,97)	(0,1)	(-254,1)	(-79,1)	(-1,5)	(-120,1)	(-127,3)	(-3,2)	(3,1)	(-118,1)	(5,5)	(-249,1)	(-124,1)	(-5,1)	(9,1)	
L1D 122>	(-20,1)	(-127,96)	(1,5)	(-1,1)	(-133,96)	(88,3)	(-159,1)	(-22,1)	(-4,3)	(-139,1)	(2,3)	(-3,1)	(-128,1)	(-108,1)	(-122,1)	(1,0)	
L1D 123>	(3,47)	(2,10)	(-254,1)	(-111,105)	(-133,2)	(-122,1)	(6,4)	(-123,2)	(-1,1)	(-3,3)	(130,2)	(-124,1)	(-115,2)	(1,1)	(1,0)	(1,0)	
L1D 124>	(-4,101)	(-5,90)	(1,5)	(2,4)	(19,1)	(-142,1)	(9,5)	(-22,1)	(-134,1)	(1,0)	(1,0)	(1,0)	(1,0)	(1,0)	(1,0)	(1,0)	
L1D 125>	(1,6)	(9,109)	(-142,16)	(-118,2)	(-249,1)	(-5,1)	(6,1)	(-12,1)	(-146,1)	(-126,1)	(0,2)	(2,0)	(-3,0)	(1,0)	(1,0)	(1,0)	
L1D 126>	(1,9)	(-118,97)	(-129,2)	(-111,2)	(-125,1)	(-87,1)	(-4,7)	(2,2)	(-9,1)	(-2,1)	(1,0)	(1,0)	(1,0)	(1,0)	(1,0)	(1,0)	
L1D 127>	(1,110)	(-2,1)	(-114,1)	(127,1)	(-249,1)	(-29,1)	(5,1)	(-125,1)	(-5,1)	(1,0)	(1,0)	(1,0)	(1,0)	(1,0)	(1,0)	(1,0)	
L1D 128>	(-4,100)	(-128,1)	(21,1)	(2,3)	(-14,1)	(-3,2)	(-142,1)	(-35,1)	(-90,1)	(-160,1)	(1,0)	(1,0)	(1,0)	(1,0)	(1,0)	(1,0)	
L1D 129>	(2,14)	(-5,9)	(-114,94)	(-3,2)	(125,3)	(1,1)	(-106,1)	(7,1)	(-126,1)	(1,0)	(1,0)	(1,0)	(1,0)	(1,0)	(1,0)	(1,0)	
L1D 130>	(-5,98)	(2,7)	(-4,4)	(74,2)	(-3,1)	(-12,1)	(-1,2)	(-19,1)	(-248,2)	(-124,1)	(22,2)	(15,1)	(1,1)	(18,1)	(-2,1)	(1,0)	
L1D 131>	(-126,71)	(2,1)	(-134,0)	(-130,0)	(-5,36)	(0,0)	(-47,0)	(1,2)	(-1,0)	(-128,0)	(6,1)	(-51,0)	(18,0)	(1,0)	(1,0)	(1,0)	
L1D 132>	(-12,102)	(1,112)	(2,99)	(22,104)	(6,103)	(-4,103)	(-126,11)	(-113,3)	(3,1)	(74,94)	(-2,1)	(-3,1)	(18,1)	(-5,1)	(-6,1)	(1,0)	
L1D 133>	(1,2)	(-3,1)	(121,3)	(-133,1)	(-99,1)	(-132,1)	(-90,1)	(2,1)	(-139,1)	(-126,1)	(1,0)	(1,0)	(1,0)	(1,0)	(1,0)	(1,0)	
L1D 134>	(-113,97)	(115,2)	(2,11)	(-132,1)	(-3,1)	(-148,1)	(1,1)	(5,1)	(9,1)	(1,0)	(1,0)	(1,0)	(1,0)	(1,0)	(1,0)	(1,0)	
L1D 135>	(-137,3)	(0,2)	(-134,2)	(2,1)	(-132,1)	(-2,2)	(-80,1)	(-90,1)	(119,1)	(16,1)	(1,2)	(-4,1)	(-118,1)	(-136,1)	(1,0)	(1,0)	
L1D 136>	(5,102)	(113,8)	(-3,2)	(50,1)	(112,1)	(-135,1)	(0,1)	(1,4)	(-139,2)	(-149,2)	(-150,1)	(1,0)	(1,0)	(1,0)	(1,0)	(1,0)	
L1D 137>	(-137,105)	(1,1)	(-3,1)	(117,1)	(-6,1)	(-9,1)	(1,0)	(1,0)	(1,0)	(1,0)	(1,0)	(1,0)	(1,0)	(1,0)	(1,0)	(1,0)	
L1D 138>	(32,72)	(2,1)	(-4,1)	(82,0)	(0,0)	(114,0)	(1,0)	(1,0)	(1,0)	(1,0)	(1,0)	(1,0)	(1,0)	(1,0)	(1,0)	(1,0)	
L1D 139>	(-138,7)	(32,71)	(-46,1)	(-133,1)	(-29,1)	(1,0)	(1,0)	(1,0)	(1,0)	(1,0)	(1,0)	(1,0)	(1,0)	(1,0)	(1,0)	(1,0)	
L1D 140>	(1,6)	(2,2)	(5,1)	(32,91)	(-140,44)	(-7,43)	(22,1)	(0,1)	(-3,0)	(112,0)	(1,0)	(1,0)	(1,0)	(1,0)	(1,0)	(1,0)	
L1D 141>	(-239,86)	(2,1)	(6,1)	(-140,1)	(1,0)	(1,0)	(1,0)	(1,0)	(1,0)	(1,0)	(1,0)	(1,0)	(1,0)	(1,0)	(1,0)	(1,0)	
L1D 142>	(-213,3)	(2,73)	(-2,0)	(6,0)	(107,3)	(-156,0)	(1,0)	(1,0)	(1,0)	(1,0)	(1,0)	(1,0)	(1,0)	(1,0)	(1,0)	(1,0)	
L1D 143>	(2,50)	(-143,6)	(-64,75)	(-150,1)	(-141,26)	(-213,25)	(6,0)	(-89,0)	(1,0)	(1,0)	(1,0)	(1,0)	(1,0)	(1,0)	(1,0)	(1,0)	
[...]
L1D 475>	(-8,1)	(1,0)	(1,0)	(1,0)	(1,0)	(1,0)	(1,0)	(1,0)	(1,0)	(1,0)	(1,0)	(1,0)	(1,0)	(1,0)	(1,0)	(1,0)	
L1D 476>	(1,0)	(1,0)	(1,0)	(1,0)	(1,0)	(1,0)	(1,0)	(1,0)	(1,0)	(1,0)	(1,0)	(1,0)	(1,0)	(1,0)	(1,0)	(1,0)	
L1D 477>	(-8,108)	(1,1)	(1,0)	(1,0)	(1,0)	(1,0)	(1,0)	(1,0)	(1,0)	(1,0)	(1,0)	(1,0)	(1,0)	(1,0)	(1,0)	(1,0)	
L1D 478>	(6,2)	(1,0)	(1,0)	(1,0)	(1,0)	(1,0)	(1,0)	(1,0)	(1,0)	(1,0)	(1,0)	(1,0)	(1,0)	(1,0)	(1,0)	(1,0)	
L1D 479>	(1,0)	(1,0)	(1,0)	(1,0)	(1,0)	(1,0)	(1,0)	(1,0)	(1,0)	(1,0)	(1,0)	(1,0)	(1,0)	(1,0)	(1,0)	(1,0)	
L1D 480>	(-3,1)	(1,0)	(1,0)	(1,0)	(1,0)	(1,0)	(1,0)	(1,0)	(1,0)	(1,0)	(1,0)	(1,0)	(1,0)	(1,0)	(1,0)	(1,0)	
L1D 481>	(6,8)	(1,2)	(1,0)	(1,0)	(1,0)	(1,0)	(1,0)	(1,0)	(1,0)	(1,0)	(1,0)	(1,0)	(1,0)	(1,0)	(1,0)	(1,0)	
L1D 482>	(1,0)	(1,0)	(1,0)	(1,0)	(1,0)	(1,0)	(1,0)	(1,0)	(1,0)	(1,0)	(1,0)	(1,0)	(1,0)	(1,0)	(1,0)	(1,0)	
L1D 483>	(1,0)	(1,0)	(1,0)	(1,0)	(1,0)	(1,0)	(1,0)	(1,0)	(1,0)	(1,0)	(1,0)	(1,0)	(1,0)	(1,0)	(1,0)	(1,0)	
L1D 484>	(1,0)	(1,0)	(1,0)	(1,0)	(1,0)	(1,0)	(1,0)	(1,0)	(1,0)	(1,0)	(1,0)	(1,0)	(1,0)	(1,0)	(1,0)	(1,0)	
L1D 485>	(1,0)	(1,0)	(1,0)	(1,0)	(1,0)	(1,0)	(1,0)	(1,0)	(1,0)	(1,0)	(1,0)	(1,0)	(1,0)	(1,0)	(1,0)	(1,0)	
L1D 486>	(1,0)	(1,0)	(1,0)	(1,0)	(1,0)	(1,0)	(1,0)	(1,0)	(1,0)	(1,0)	(1,0)	(1,0)	(1,0)	(1,0)	(1,0)	(1,0)	
L1D 487>	(1,4)	(1,0)	(1,0)	(1,0)	(1,0)	(1,0)	(1,0)	(1,0)	(1,0)	(1,0)	(1,0)	(1,0)	(1,0)	(1,0)	(1,0)	(1,0)	
L1D 488>	(1,0)	(1,0)	(1,0)	(1,0)	(1,0)	(1,0)	(1,0)	(1,0)	(1,0)	(1,0)	(1,0)	(1,0)	(1,0)	(1,0)	(1,0)	(1,0)	
L1D 489>	(1,94)	(1,0)	(1,0)	(1,0)	(1,0)	(1,0)	(1,0)	(1,0)	(1,0)	(1,0)	(1,0)	(1,0)	(1,0)	(1,0)	(1,0)	(1,0)	
L1D 490>	(1,3)	(1,0)	(1,0)	(1,0)	(1,0)	(1,0)	(1,0)	(1,0)	(1,0)	(1,0)	(1,0)	(1,0)	(1,0)	(1,0)	(1,0)	(1,0)	
L1D 491>	(-343,1)	(1,0)	(1,0)	(1,0)	(1,0)	(1,0)	(1,0)	(1,0)	(1,0)	(1,0)	(1,0)	(1,0)	(1,0)	(1,0)	(1,0)	(1,0)	
L1D 492>	(1,9)	(0,1)	(-343,99)	(1,0)	(1,0)	(1,0)	(1,0)	(1,0)	(1,0)	(1,0)	(1,0)	(1,0)	(1,0)	(1,0)	(1,0)	(1,0)	
L1D 493>	(1,0)	(1,0)	(1,0)	(1,0)	(1,0)	(1,0)	(1,0)	(1,0)	(1,0)	(1,0)	(1,0)	(1,0)	(1,0)	(1,0)	(1,0)	(1,0)	
L1D 494>	(1,1)	(1,0)	(1,0)	(1,0)	(1,0)	(1,0)	(1,0)	(1,0)	(1,0)	(1,0)	(1,0)	(1,0)	(1,0)	(1,0)	(1,0)	(1,0)	
L1D 495>	(0,1)	(1,0)	(1,0)	(1,0)	(1,0)	(1,0)	(1,0)	(1,0)	(1,0)	(1,0)	(1,0)	(1,0)	(1,0)	(1,0)	(1,0)	(1,0)	
L1D 496>	(1,1)	(1,0)	(1,0)	(1,0)	(1,0)	(1,0)	(1,0)	(1,0)	(1,0)	(1,0)	(1,0)	(1,0)	(1,0)	(1,0)	(1,0)	(1,0)	
L1D 497>	(1,0)	(1,0)	(1,0)	(1,0)	(1,0)	(1,0)	(1,0)	(1,0)	(1,0)	(1,0)	(1,0)	(1,0)	(1,0)	(1,0)	(1,0)	(1,0)	
L1D 498>	(2,1)	(1,0)	(1,0)	(1,0)	(1,0)	(1,0)	(1,0)	(1,0)	(1,0)	(1,0)	(1,0)	(1,0)	(1,0)	(1,0)	(1,0)	(1,0)	
L1D 499>	(1,0)	(1,0)	(1,0)	(1,0)	(1,0)	(1,0)	(1,0)	(1,0)	(1,0)	(1,0)	(1,0)	(1,0)	(1,0)	(1,0)	(1,0)	(1,0)	
L1D 500>	(-218,4)	(-95,1)	(1,0)	(1,0)	(1,0)	(1,0)	(1,0)	(1,0)	(1,0)	(1,0)	(1,0)	(1,0)	(1,0)	(1,0)	(1,0)	(1,0)	
L1D 501>	(-218,101)	(2,5)	(1,0)	(1,0)	(1,0)	(1,0)	(1,0)	(1,0)	(1,0)	(1,0)	(1,0)	(1,0)	(1,0)	(1,0)	(1,0)	(1,0)	
L1D 502>	(1,0)	(1,0)	(1,0)	(1,0)	(1,0)	(1,0)	(1,0)	(1,0)	(1,0)	(1,0)	(1,0)	(1,0)	(1,0)	(1,0)	(1,0)	(1,0)	
L1D 503>	(1,0)	(1,0)	(1,0)	(1,0)	(1,0)	(1,0)	(1,0)	(1,0)	(1,0)	(1,0)	(1,0)	(1,0)	(1,0)	(1,0)	(1,0)	(1,0)	
L1D 504>	(1,0)	(1,0)	(1,0)	(1,0)	(1,0)	(1,0)	(1,0)	(1,0)	(1,0)	(1,0)	(1,0)	(1,0)	(1,0)	(1,0)	(1,0)	(1,0)	
L1D 505>	(-3,1)	(1,0)	(1,0)	(1,0)	(1,0)	(1,0)	(1,0)	(1,0)	(1,0)	(1,0)	(1,0)	(1,0)	(1,0)	(1,0)	(1,0)	(1,0)	
L1D 506>	(1,0)	(1,0)	(1,0)	(1,0)	(1,0)	(1,0)	(1,0)	(1,0)	(1,0)	(1,0)	(1,0)	(1,0)	(1,0)	(1,0)	(1,0)	(1,0)	
L1D 507>	(1,0)	(1,0)	(1,0)	(1,0)	(1,0)	(1,0)	(1,0)	(1,0)	(1,0)	(1,0)	(1,0)	(1,0)	(1,0)	(1,0)	(1,0)	(1,0)	
L1D 508>	(1,0)	(1,0)	(1,0)	(1,0)	(1,0)	(1,0)	(1,0)	(1,0)	(1,0)	(1,0)	(1,0)	(1,0)	(1,0)	(1,0)	(1,0)	(1,0)	
L1D 509>	(1,0)	(1,0)	(1,0)	(1,0)	(1,0)	(1,0)	(1,0)	(1,0)	(1,0)	(1,0)	(1,0)	(1,0)	(1,0)	(1,0)	(1,0)	(1,0)	
L1D 510>	(1,0)	(1,0)	(1,0)	(1,0)	(1,0)	(1,0)	(1,0)	(1,0)	(1,0)	(1,0)	(1,0)	(1,0)	(1,0)	(1,0)	(1,0)	(1,0)	
L1D 511>	(1,0)	(1,0)	(1,0)	(1,0)	(1,0)	(1,0)	(1,0)	(1,0)	(1,0)	(1,0)	(1,0)	(1,0)	(1,0)	(1,0)	(1,0)	(1,0)	

L2C -64>	(-2,39)	(1,228)	(0,51)	(-9,74)	(2,49)	(-5,48)	(-7,112)	(12,1)	(-22,11)	(5,13)	(-6,147)	(-4,27)	(-13,11)	(-8,61)	(-3,25)	(-1,28)	
L2C -63>	(1,74)	(2,96)	(3,103)	(17,6)	(4,4)	(1,0)	(1,0)	(1,0)	(1,0)	(1,0)	(1,0)	(1,0)	(1,0)	(1,0)	(1,0)	(1,0)	
L2C -62>	(1,176)	(13,1)	(5,3)	(10,3)	(2,3)	(62,60)	(6,2)	(1,0)	(1,0)	(1,0)	(1,0)	(1,0)	(1,0)	(1,0)	(1,0)	(1,0)	
L2C -61>	(1,85)	(4,3)	(5,14)	(9,1)	(11,2)	(-1,2)	(2,4)	(55,2)	(1,0)	(1,0)	(1,0)	(1,0)	(1,0)	(1,0)	(1,0)	(1,0)	
L2C -60>	(5,56)	(1,62)	(4,1)	(2,9)	(3,3)	(37,1)	(12,1)	(6,1)	(10,1)	(-1,2)	(59,1)	(61,1)	(1,0)	(1,0)	(1,0)	(1,0)	
L2C -59>	(1,115)	(4,1)	(59,3)	(37,9)	(11,4)	(5,23)	(2,1)	(-1,1)	(25,6)	(0,1)	(1,0)	(1,0)	(1,0)	(1,0)	(1,0)	(1,0)	
L2C -58>	(1,135)	(5,18)	(11,7)	(9,1)	(37,3)	(4,4)	(2,16)	(3,4)	(-1,1)	(25,2)	(1,0)	(1,0)	(1,0)	(1,0)	(1,0)	(1,0)	
L2C -57>	(11,9)	(1,196)	(2,7)	(10,1)	(5,50)	(-1,2)	(12,1)	(57,1)	(1,0)	(1,0)	(1,0)	(1,0)	(1,0)	(1,0)	(1,0)	(1,0)	
L2C -56>	(1,152)	(-1,50)	(5,5)	(2,4)	(10,14)	(11,3)	(0,1)	(3,4)	(37,3)	(12,2)	(4,9)	(-4,1)	(9,4)	(1,0)	(1,0)	(1,0)	
L2C -55>	(1,209)	(-1,1)	(-2,4)	(4,11)	(33,3)	(0,7)	(5,14)	(11,6)	(2,1)	(55,197)	(-4,7)	(12,3)	(3,3)	(37,3)	(10,4)	(-6,1)	
L2C -54>	(1,67)	(13,1)	(6,9)	(4,2)	(2,5)	(37,1)	(5,2)	(9,3)	(10,1)	(3,1)	(11,3)	(12,1)	(-6,2)	(-4,4)	(1,0)	(1,0)	
L2C -53>	(1,46)	(51,1)	(12,3)	(4,2)	(5,7)	(11,2)	(-4,3)	(3,2)	(7,1)	(6,1)	(-5,1)	(1,0)	(1,0)	(1,0)	(1,0)	(1,0)	
L2C -52>	(1,162)	(11,2)	(4,5)	(9,2)	(-4,14)	(12,2)	(33,2)	(37,1)	(53,69)	(-6,3)	(48,1)	(-1,1)	(1,0)	(1,0)	(1,0)	(1,0)	
L2C -51>	(1,185)	(33,1)	(4,3)	(-4,3)	(-1,86)	(7,1)	(-2,1)	(2,4)	(3,1)	(13,1)	(9,1)	(14,1)	(-3,1)	(1,0)	(1,0)	(1,0)	
L2C -50>	(1,51)	(-1,11)	(-4,3)	(43,43)	(4,2)	(2,2)	(3,2)	(5,1)	(48,34)	(11,1)	(49,1)	(26,1)	(25,1)	(1,0)	(1,0)	(1,0)	
L2C -49>	(1,60)	(40,2)	(-1,7)	(0,1)	(7,2)	(50,2)	(4,2)	(-4,1)	(5,1)	(12,1)	(11,1)	(15,1)	(25,1)	(1,0)	(1,0)	(1,0)	
L2C -48>	(1,70)	(47,1)	(48,2)	(40,75)	(42,1)	(-1,2)	(43,1)	(49,1)	(-2,5)	(-4,4)	(2,1)	(12,1)	(33,1)	(54,2)	(5,1)	(7,1)	
L2C -47>	(1,109)	(43,70)	(-3,1)	(13,1)	(4,2)	(3,1)	(5,3)	(25,5)	(57,5)	(9,1)	(49,1)	(1,0)	(1,0)	(1,0)	(1,0)	(1,0)	
L2C -46>	(45,15)	(1,102)	(24,99)	(2,17)	(-10,1)	(43,2)	(-8,1)	(-1,3)	(11,1)	(57,29)	(56,31)	(1,0)	(1,0)	(1,0)	(1,0)	(1,0)	
L2C -45>	(-1,27)	(40,193)	(51,10)	(1,221)	(2,8)	(0,8)	(43,2)	(25,14)	(8,2)	(45,7)	(20,5)	(18,6)	(21,4)	(56,1)	(24,1)	(23,1)	
L2C -44>	(10,1)	(1,241)	(2,4)	(-1,25)	(56,2)	(11,8)	(43,22)	(13,1)	(63,1)	(46,1)	(42,5)	(9,1)	(8,4)	(4,1)	(45,16)	(3,1)	
L2C -43>	(1,146)	(-2,108)	(41,2)	(43,1)	(-1,9)	(45,9)	(40,12)	(4,2)	(20,1)	(44,4)	(0,90)	(11,1)	(3,1)	(2,2)	(15,1)	(5,1)	
L2C -42>	(1,152)	(14,3)	(28,1)	(56,36)	(43,5)	(48,2)	(25,2)	(-1,52)	(10,0)	(2,1)	(35,0)	(44,0)	(34,0)	(15,0)	(33,0)	(29,0)	
L2C -41>	(1,86)	(40,3)	(-1,8)	(44,3)	(3,1)	(25,11)	(2,1)	(42,1)	(13,1)	(1,0)	(1,0)	(1,0)	(1,0)	(1,0)	(1,0)	(1,0)	
L2C -40>	(1,171)	(-1,7)	(40,3)	(2,10)	(35,1)	(18,1)	(25,3)	(24,1)	(29,1)	(6,0)	(3,1)	(4,1)	(20,1)	(41,3)	(28,12)	(21,0)	
L2C -39>	(1,59)	(2,16)	(-1,1)	(15,1)	(27,2)	(3,1)	(5,1)	(11,1)	(17,1)	(34,32)	(31,1)	(4,1)	(14,1)	(28,5)	(23,2)	(19,1)	
L2C -38>	(13,53)	(19,2)	(2,50)	(0,2)	(35,7)	(1,168)	(6,1)	(26,1)	(4,3)	(-1,1)	(7,1)	(-3,1)	(31,1)	(29,1)	(-4,1)	(1,0)	
L2C -37>	(29,38)	(47,5)	(-9,1)	(1,45)	(2,3)	(10,2)	(-11,15)	(-4,2)	(-1,27)	(5,1)	(-2,9)	(9,2)	(19,1)	(1,0)	(1,0)	(1,0)	
L2C -36>	(1,137)	(31,0)	(-10,4)	(19,0)	(0,0)	(35,2)	(11,1)	(4,0)	(13,26)	(24,51)	(-4,0)	(-2,1)	(2,1)	(9,1)	(18,0)	(3,1)	
L2C -35>	(1,215)	(3,2)	(53,2)	(-9,18)	(0,2)	(-2,74)	(-1,42)	(35,5)	(10,2)	(-3,2)	(27,1)	(2,3)	(34,32)	(-14,1)	(36,1)	(30,0)	
L2C -34>	(1,66)	(-2,20)	(-1,104)	(37,106)	(35,28)	(34,74)	(-3,106)	(27,24)	(5,3)	(23,1)	(-4,4)	(3,1)	(4,2)	(40,1)	(10,1)	(30,1)	
L2C -33>	(1,128)	(2,1)	(-2,0)	(29,0)	(32,0)	(27,0)	(20,0)	(17,0)	(19,1)	(21,0)	(4,0)	(0,0)	(3,0)	(40,0)	(23,0)	(30,0)	
L2C -32>	(-1,1)	(17,3)	(2,28)	(1,66)	(53,9)	(-19,34)	(19,27)	(-2,11)	(31,4)	(13,3)	(34,3)	(9,6)	(27,2)	(-3,9)	(32,2)	(29,4)	
L2C -31>	(32,1)	(1,204)	(24,174)	(2,9)	(21,1)	(3,4)	(14,7)	(-5,1)	(27,8)	(28,73)	(-2,6)	(11,1)	(-1,7)	(25,6)	(10,1)	(26,1)	
L2C -30>	(1,156)	(3,2)	(-1,2)	(27,1)	(4,1)	(30,2)	(-10,0)	(5,0)	(2,48)	(9,0)	(31,3)	(24,1)	(10,0)	(13,3)	(34,22)	(12,0)	
L2C -29>	(38,7)	(37,1)	(26,1)	(1,218)	(29,82)	(-1,1)	(14,1)	(2,5)	(39,2)	(28,1)	(0,0)	(-4,5)	(53,53)	(-5,0)	(27,0)	(5,0)	
L2C -28>	(29,62)	(-2,93)	(14,17)	(1,176)	(35,1)	(-5,4)	(27,44)	(0,1)	(2,8)	(-14,1)	(37,0)	(3,1)	(-13,0)	(30,0)	(24,4)	(-4,2)	
L2C -27>	(1,180)	(2,2)	(22,29)	(4,3)	(53,2)	(-9,23)	(23,1)	(27,2)	(13,1)	(3,1)	(-4,1)	(28,22)	(5,0)	(0,1)	(-1,7)	(35,1)	
L2C -26>	(-30,1)	(53,18)	(37,87)	(-9,64)	(27,31)	(1,198)	(0,13)	(26,88)	(11,15)	(4,1)	(-6,0)	(3,6)	(-2,7)	(8,0)	(2,8)	(-1,3)	
L2C -25>	(3,3)	(1,180)	(-8,2)	(21,33)	(6,1)	(4,1)	(2,8)	(5,2)	(-5,1)	(26,1)	(-1,20)	(9,1)	(13,1)	(19,1)	(41,1)	(22,2)	
L2C -24>	(1,252)	(18,3)	(25,4)	(3,75)	(-9,1)	(-1,86)	(17,2)	(-27,5)	(26,55)	(2,45)	(22,2)	(-2,1)	(4,2)	(21,3)	(10,1)	(29,0)	
L2C -23>	(13,1)	(-3,1)	(1,209)	(-1,7)	(2,3)	(-2,20)	(-7,1)	(-40,7)	(3,1)	(24,2)	(14,1)	(18,1)	(-23,1)	(4,0)	(22,2)	(-9,0)	
L2C -22>	(2,3)	(1,238)	(-1,39)	(15,1)	(13,43)	(23,1)	(17,9)	(14,44)	(22,1)	(-8,1)	(31,10)	(-2,1)	(20,1)	(-6,1)	(18,12)	(3,1)	
L2C -21>	(2,35)	(1,171)	(21,242)	(-13,13)	(17,110)	(31,10)	(-1,3)	(-3,1)	(19,1)	(9,1)	(13,58)	(32,1)	(3,2)	(10,2)	(4,1)	(-5,1)	
L2C -20>	(1,131)	(22,4)	(2,0)	(13,4)	(0,0)	(-40,0)	(11,0)	(12,0)	(-2,0)	(21,0)	(18,0)	(-1,18)	(15,0)	(17,1)	(45,0)	(23,0)	
L2C -19>	(1,157)	(-2,20)	(8,4)	(15,115)	(18,15)	(-1,133)	(14,24)	(17,45)	(-14,38)	(13,27)	(21,21)	(-40,1)	(16,1)	(-13,1)	(-27,8)	(4,11)	
L2C -18>	(1,155)	(0,1)	(-1,16)	(27,0)	(13,4)	(17,5)	(4,0)	(-41,0)	(2,0)	(-5,0)	(19,1)	(-8,0)	(30,0)	(33,0)	(-15,13)	(-2,1)	
L2C -17>	(1,212)	(-1,11)	(9,4)	(-3,1)	(15,6)	(18,1)	(41,15)	(0,38)	(2,2)	(17,1)	(8,2)	(7,0)	(26,1)	(3,1)	(6,0)	(10,0)	
L2C -16>	(15,27)	(13,4)	(1,176)	(4,20)	(14,63)	(2,10)	(17,4)	(6,3)	(-1,23)	(19,2)	(0,58)	(-2,2)	(25,2)	(41,1)	(9,2)	(-13,2)	
L2C -15>	(4,9)	(16,32)	(1,194)	(31,1)	(-1,17)	(-10,4)	(13,2)	(0,18)	(18,11)	(9,1)	(-2,0)	(2,3)	(14,8)	(10,0)	(17,1)	(30,14)	
L2C -14>	(1,174)	(-27,4)	(24,1)	(15,18)	(14,117)	(-3,1)	(13,63)	(16,22)	(-1,10)	(2,32)	(4,6)	(23,1)	(0,44)	(8,17)	(9,22)	(10,2)	
L2C -13>	(4,36)	(1,250)	(14,115)	(-2,25)	(3,1)	(2,13)	(7,2)	(16,2)	(34,12)	(9,2)	(13,133)	(15,4)	(12,72)	(10,3)	(-1,139)	(6,44)	
L2C -12>	(2,4)	(3,29)	(1,248)	(8,41)	(-1,30)	(-2,2)	(10,25)	(15,4)	(4,7)	(14,1)	(11,1)	(5,1)	(13,8)	(7,6)	(9,1)	(-42,2)	
L2C -11>	(1,222)	(9,72)	(8,33)	(-2,46)	(7,4)	(-1,67)	(-8,23)	(2,26)	(3,21)	(4,1)	(14,7)	(-3,36)	(12,13)	(6,9)	(5,33)	(-5,6)	
L2C -10>	(8,5)	(49,1)	(9,9)	(5,1)	(-2,12)	(1,166)	(-1,3)	(-11,7)	(13,0)	(6,0)	(2,24)	(3,6)	(30,0)	(4,1)	(25,5)	(-4,6)	
L2C -9>	(1,245)	(-2,4)	(40,1)	(-10,0)	(-14,2)	(5,1)	(-9,0)	(-18,1)	(-8,7)	(-1,47)	(15,4)	(3,4)	(2,34)	(4,6)	(-13,0)	(8,7)	
L2C -8>	(3,5)	(1,143)	(9,4)	(-1,20)	(-5,0)	(17,1)	(0,5)	(-30,0)	(2,5)	(-3,1)	(-2,5)	(4,1)	(-9,0)	(13,0)	(5,3)	(-16,0)	
L2C -7>	(1,233)	(15,1)	(33,5)	(-3,8)	(-7,5)	(4,10)	(40,3)	(-1,83)	(10,4)	(-42,5)	(-2,25)	(3,13)	(2,30)	(-26,4)	(0,9)	(-18,6)	
L2C -6>	(4,2)	(33,1)	(34,2)	(1,222)	(-6,2)	(-4,6)	(7,4)	(2,11)	(10,2)	(0,24)	(14,2)	(-1,30)	(-3,3)	(-2,4)	(-24,3)	(-9,2)	
L2C -5>	(1,132)	(-2,0)	(13,3)	(2,9)	(4,9)	(3,4)	(14,5)	(5,6)	(-16,5)	(0,15)	(-4,5)	(-1,34)	(6,0)	(8,0)	(10,0)	(28,0)	
L2C -4>	(-2,10)	(5,7)	(0,1)	(3,21)	(2,16)	(1,130)	(10,5)	(-10,3)	(-1,63)	(4,9)	(-34,5)	(-11,5)	(17,1)	(43,5)	(13,3)	(-31,0)	
L2C -3>	(3,18)	(4,9)	(-6,1)	(1,179)	(5,4)	(-1,35)	(-9,1)	(51,3)	(13,3)	(7,3)	(2,40)	(24,3)	(-55,3)	(0,1)	(-2,6)	(-33,4)	
L2C -2>	(-2,6)	(25,1)	(-3,2)	(-10,4)	(2,16)	(5,3)	(-52,1)	(0,5)	(-4,3)	(1,239)	(-15,1)	(-1,32)	(9,2)	(40,1)	(3,60)	(13,2)	
L2C -1>	(33,1)	(3,10)	(1,192)	(-2,14)	(-4,5)	(-3,1)	(14,3)	(5,1)	(2,67)	(24,1)	(0,3)	(-1,41)	(4,4)	(-20,1)	(13,1)	(-31,1)	
L2C 0>	(-1,11)	(1,28)	(0,234)	(-13,1)	(2,1)	(-36,0)	(16,0)	(-17,0)	(14,1)	(-4,1)	(-3,2)	(-2,4)	(62,1)	(13,1)	(5,0)	(21,1)	
L2C 1>	(1,138)	(7,2)	(3,2)	(-5,2)	(-35,1)	(-4,3)	(-8,1)	(14,1)	(-2,14)	(-1,15)	(-10,2)	(-14,1)	(-11,1)	(27,1)	(2,10)	(-3,7)	
L2C 2>	(-9,4)	(1,215)	(-4,6)	(-3,11)	(-1,67)	(2,11)	(21,1)	(0,8)	(10,1)	(-18,1)	(-63,1)	(-50,1)	(-2,13)	(3,1)	(43,2)	(11,2)	
L2C 3>	(-3,5)	(4,2)	(1,137)	(36,2)	(-14,1)	(-2,28)	(-4,5)	(-21,0)	(2,1)	(-17,2)	(3,2)	(0,3)	(13,0)	(-1,20)	(-20,2)	(-8,0)	
L2C 4>	(1,192)	(2,3)	(18,8)	(-9,1)	(26,5)	(-3,43)	(14,3)	(-1,33)	(-6,1)	(-8,7)	(-5,2)	(-7,1)	(6,1)	(-2,12)	(-18,11)	(-4,16)	
L2C 5>	(1,181)	(-7,3)	(-14,10)	(-1,77)	(-4,7)	(9,1)	(-6,13)	(-3,2)	(2,7)	(-5,54)	(16,0)	(-2,4)	(-15,1)	(3,2)	(-8,3)	(-9,0)	
L2C 6>	(1,147)	(-7,1)	(-5,14)	(3,2)	(0,0)	(-9,0)	(-28,0)	(-8,19)	(-30,21)	(-1,18)	(-6,3)	(5,1)	(-13,0)	(-4,10)	(2,7)	(-14,8)	
L2C 7>	(1,141)	(-35,1)	(-63,1)	(-37,6)	(-9,1)	(2,2)	(-1,0)	(3,1)	(-10,1)	(-3,5)	(-30,0)	(4,0)	(0,2)	(-6,8)	(-23,0)	(-27,0)	
L2C 8>	(-7,39)	(-4,10)	(1,163)	(2,30)	(-10,19)	(3,6)	(-8,14)	(-14,15)	(0,7)	(-12,18)	(-11,1)	(-2,1)	(-9,2)	(8,1)	(-37,2)	(-26,1)	
L2C 9>	(-6,37)	(1,160)	(-4,8)	(-15,33)	(-8,16)	(-23,23)	(2,34)	(-1,35)	(-19,1)	(-3,2)	(-14,12)	(-7,1)	(-16,1)	(-9,4)	(-10,0)	(5,2)	
L2C 10>	(-13,17)	(-51,2)	(1,137)	(2,1)	(-40,0)	(0,15)	(-30,0)	(-12,1)	(-9,6)	(31,22)	(-1,20)	(-8,22)	(-35,22)	(-7,13)	(-15,0)	(-11,2)	
L2C 11>	(-5,11)	(-9,14)	(3,3)	(11,18)	(1,246)	(-34,2)	(-10,5)	(-13,4)	(-1,9)	(-57,54)	(-7,2)	(4,1)	(2,11)	(18,24)	(-28,34)	(-14,15)	
L2C 12>	(1,243)	(5,5)	(2,6)	(-1,24)	(3,26)	(-12,2)	(6,5)	(-14,23)	(-11,65)	(-4,3)	(0,10)	(10,5)	(4,12)	(-10,81)	(-9,1)	(-8,9)	
L2C 13>	(1,151)	(-5,6)	(0,12)	(-56,12)	(5,11)	(-20,3)	(-26,11)	(2,11)	(-14,25)	(-12,2)	(-15,1)	(-13,11)	(-9,0)	(-2,12)	(-17,1)	(20,12)	
L2C 14>	(1,188)	(35,0)	(15,5)	(-13,52)	(-35,28)	(-6,15)	(0,14)	(-12,47)	(36,0)	(-15,28)	(-1,15)	(-17,65)	(2,5)	(-14,144)	(-16,21)	(-45,11)	
L2C 15>	(1,246)	(-2,2)	(-36,55)	(3,132)	(-6,22)	(-1,85)	(4,9)	(-13,38)	(-14,62)	(-12,3)	(2,32)	(11,27)	(-19,44)	(-15,4)	(-38,2)	(-18,1)	
L2C 16>	(4,5)	(-14,30)	(1,210)	(2,1)	(-7,8)	(-1,46)	(-23,1)	(3,46)	(-18,9)	(-15,57)	(-21,2)	(-13,2)	(-2,1)	(-16,1)	(-30,1)	(-40,1)	
L2C 17>	(-15,1)	(2,22)	(-49,13)	(1,196)	(-14,49)	(-41,1)	(-1,41)	(9,41)	(3,1)	(-26,3)	(0,1)	(-23,1)	(-16,77)	(-17,2)	(-30,14)	(4,22)	
L2C 18>	(9,103)	(1,198)	(-1,8)	(-22,7)	(-17,251)	(-19,27)	(2,70)	(-27,55)	(22,3)	(-15,14)	(15,93)	(-59,2)	(4,3)	(-14,12)	(-8,9)	(-4,1)	
L2C 19>	(1,153)	(-1,13)	(13,58)	(4,7)	(-17,3)	(-53,1)	(2,5)	(-19,0)	(3,1)	(-2,1)	(-18,11)	(5,3)	(-28,0)	(-8,0)	(14,14)	(-15,1)	
L2C 20>	(1,113)	(-21,5)	(-1,4)	(-10,22)	(4,5)	(-7,3)	(-2,1)	(-6,1)	(-39,3)	(14,68)	(15,4)	(2,3)	(5,6)	(3,5)	(-26,12)	(9,2)	
L2C 21>	(1,154)	(-21,95)	(-11,32)	(-12,1)	(-40,1)	(-28,1)	(-2,1)	(-1,4)	(-20,2)	(0,1)	(-38,1)	(15,1)	(-14,0)	(-10,0)	(4,20)	(13,1)	
L2C 22>	(1,112)	(14,9)	(-1,14)	(-2,4)	(2,10)	(13,11)	(-40,8)	(-38,5)	(16,11)	(-21,50)	(-23,100)	(-14,1)	(-27,6)	(-15,3)	(3,9)	(0,3)	
L2C 23>	(-28,2)	(13,6)	(1,119)	(-1,122)	(2,3)	(-11,7)	(21,1)	(-24,1)	(5,5)	(-4,2)	(-26,4)	(4,5)	(14,2)	(-18,1)	(10,1)	(17,1)	
L2C 24>	(1,146)	(-33,6)	(-26,152)	(9,127)	(14,40)	(-13,1)	(-48,3)	(-38,1)	(-24,47)	(11,1)	(-23,8)	(-21,1)	(-51,11)	(-25,15)	(-1,10)	(-32,12)	
L2C 25>	(1,141)	(9,23)	(-32,3)	(-1,18)	(4,34)	(2,58)	(18,3)	(-22,1)	(-26,2)	(-39,16)	(-38,3)	(-4,2)	(12,34)	(-33,2)	(-16,8)	(11,3)	
L2C 26>	(13,1)	(-26,185)	(1,51)	(-4,73)	(-1,17)	(-27,5)	(-30,2)	(-28,2)	(9,4)	(-29,8)	(-34,2)	(8,1)	(-16,8)	(10,3)	(-20,1)	(-18,1)	
L2C 27>	(18,1)	(1,146)	(-20,2)	(-1,5)	(-2,8)	(-29,3)	(0,2)	(-22,5)	(-23,18)	(4,0)	(2,0)	(-33,4)	(-16,0)	(13,0)	(-30,1)	(5,0)	
L2C 28>	(-1,121)	(1,158)	(-34,4)	(-10,43)	(-26,3)	(9,14)	(-27,5)	(6,1)	(13,97)	(-22,3)	(-4,85)	(8,3)	(-23,3)	(-30,2)	(-16,5)	(-24,2)	
L2C 29>	(-29,129)	(-28,208)	(2,2)	(-34,2)	(-33,8)	(-1,2)	(-35,8)	(1,33)	(4,45)	(-17,2)	(14,58)	(-36,2)	(-6,1)	(-30,6)	(-19,1)	(-32,1)	
L2C 30>	(1,143)	(-29,138)	(-35,89)	(-45,49)	(2,32)	(14,3)	(-36,27)	(5,1)	(-38,33)	(0,27)	(-1,1)	(6,2)	(-2,1)	(-18,0)	(4,1)	(-6,0)	
L2C 31>	(1,250)	(-21,3)	(-11,8)	(3,2)	(0,1)	(-15,1)	(-33,2)	(-30,11)	(-29,28)	(-2,1)	(-38,1)	(2,1)	(-32,18)	(4,4)	(-10,2)	(-1,3)	
L2C 32>	(4,1)	(1,23)	(2,1)	(-22,1)	(-33,3)	(-1,10)	(-27,1)	(-9,2)	(-5,1)	(-58,2)	(3,1)	(-31,4)	(-32,2)	(1,0)	(1,0)	(1,0)	
L2C 33>	(2,1)	(1,228)	(4,1)	(-43,1)	(-32,3)	(-11,0)	(-1,21)	(-10,21)	(-7,4)	(-33,0)	(-31,21)	(1,0)	(1,0)	(1,0)	(1,0)	(1,0)	
L2C 34>	(1,234)	(4,187)	(-34,105)	(-4,2)	(-36,1)	(-35,3)	(-28,1)	(-1,11)	(0,67)	(2,3)	(-21,61)	(-24,2)	(-3,8)	(-13,1)	(3,1)	(-33,1)	
L2C 35>	(1,162)	(2,3)	(-32,4)	(-21,3)	(-36,12)	(-7,13)	(0,33)	(-35,5)	(-48,1)	(-22,2)	(4,16)	(-34,3)	(-2,1)	(-4,1)	(-9,1)	(-1,14)	
L2C 36>	(1,44)	(-2,7)	(2,14)	(-10,1)	(-35,3)	(-34,2)	(-1,1)	(4,9)	(-15,1)	(-37,1)	(-24,1)	(1,0)	(1,0)	(1,0)	(1,0)	(1,0)	
L2C 37>	(-46,1)	(-26,209)	(1,127)	(-4,7)	(-38,52)	(2,1)	(4,48)	(-43,17)	(-1,3)	(10,3)	(-44,10)	(-25,1)	(-29,2)	(-34,1)	(1,0)	(1,0)	
L2C 38>	(14,3)	(-2,3)	(1,208)	(2,2)	(-10,1)	(-11,1)	(-1,51)	(-29,1)	(4,1)	(-32,1)	(-6,1)	(1,0)	(1,0)	(1,0)	(1,0)	(1,0)	
L2C 39>	(1,208)	(-4,2)	(4,12)	(-8,1)	(-1,3)	(-36,96)	(2,1)	(-17,1)	(-44,1)	(-43,1)	(-38,2)	(1,0)	(1,0)	(1,0)	(1,0)	(1,0)	
L2C 40>	(1,107)	(5,134)	(-41,1)	(-43,8)	(-36,5)	(-29,20)	(-26,0)	(-2,1)	(8,20)	(-42,1)	(-10,1)	(-15,1)	(2,1)	(-17,0)	(0,0)	(3,0)	
L2C 41>	(3,1)	(-45,1)	(1,34)	(2,13)	(0,7)	(-39,2)	(-21,1)	(-1,1)	(-35,3)	(-44,1)	(-50,1)	(-47,1)	(-4,3)	(1,0)	(1,0)	(1,0)	
L2C 42>	(-44,124)	(1,113)	(-1,53)	(3,7)	(-35,1)	(6,2)	(-43,83)	(-27,1)	(-40,2)	(-7,1)	(-32,1)	(-41,1)	(1,0)	(1,0)	(1,0)	(1,0)	
L2C 43>	(1,170)	(-48,43)	(-1,4)	(14,51)	(-42,91)	(-45,9)	(-44,106)	(-46,1)	(0,19)	(-3,1)	(-2,3)	(-43,2)	(-35,2)	(-31,1)	(1,0)	(1,0)	
L2C 44>	(-42,0)	(-32,0)	(1,138)	(4,0)	(-19,1)	(2,3)	(-2,4)	(-43,0)	(-35,0)	(-27,0)	(-1,0)	(-44,0)	(0,0)	(1,0)	(1,0)	(1,0)	
L2C 45>	(-50,1)	(1,119)	(-63,108)	(-42,7)	(-3,1)	(-45,6)	(-43,8)	(-1,1)	(-44,10)	(-29,1)	(-27,1)	(-34,2)	(-46,16)	(-2,3)	(-33,1)	(-62,1)	
L2C 46>	(2,2)	(-51,3)	(-56,10)	(-3,1)	(1,5)	(-4,55)	(3,1)	(4,1)	(-44,7)	(8,1)	(-46,1)	(-1,1)	(-48,1)	(-55,1)	(1,0)	(1,0)	
L2C 47>	(-56,104)	(1,11)	(2,2)	(-50,12)	(-51,64)	(-37,1)	(-53,17)	(-35,1)	(-1,1)	(-52,16)	(-3,1)	(-48,1)	(1,0)	(1,0)	(1,0)	(1,0)	
L2C 48>	(1,163)	(6,102)	(0,12)	(-46,2)	(-48,2)	(-4,1)	(2,1)	(-31,1)	(1,0)	(1,0)	(1,0)	(1,0)	(1,0)	(1,0)	(1,0)	(1,0)	
L2C 49>	(3,1)	(-55,51)	(-48,6)	(1,3)	(-50,48)	(-1,1)	(1,0)	(1,0)	(1,0)	(1,0)	(1,0)	(1,0)	(1,0)	(1,0)	(1,0)	(1,0)	
L2C 50>	(1,10)	(-31,1)	(6,6)	(0,5)	(-55,1)	(-28,5)	(-49,1)	(-1,1)	(1,0)	(1,0)	(1,0)	(1,0)	(1,0)	(1,0)	(1,0)	(1,0)	
L2C 51>	(2,1)	(-56,3)	(-46,3)	(1,1)	(4,1)	(-35,1)	(1,0)	(1,0)	(1,0)	(1,0)	(1,0)	(1,0)	(1,0)	(1,0)	(1,0)	(1,0)	
L2C 52>	(-51,97)	(-35,35)	(-49,2)	(-47,1)	(0,2)	(-48,4)	(1,34)	(-53,1)	(2,1)	(1,0)	(1,0)	(1,0)	(1,0)	(1,0)	(1,0)	(1,0)	
L2C 53>	(-26,65)	(1,7)	(-31,13)	(-28,1)	(-52,69)	(-1,1)	(-53,1)	(1,0)	(1,0)	(1,0)	(1,0)	(1,0)	(1,0)	(1,0)	(1,0)	(1,0)	
L2C 54>	(-59,1)	(-55,56)	(1,3)	(0,1)	(-53,3)	(-30,2)	(-63,1)	(1,0)	(1,0)	(1,0)	(1,0)	(1,0)	(1,0)	(1,0)	(1,0)	(1,0)	
L2C 55>	(1,5)	(0,17)	(-55,92)	(-56,91)	(-1,2)	(1,0)	(1,0)	(1,0)	(1,0)	(1,0)	(1,0)	(1,0)	(1,0)	(1,0)	(1,0)	(1,0)	
L2C 56>	(1,83)	(-46,99)	(0,2)	(-28,1)	(-56,1)	(1,0)	(1,0)	(1,0)	(1,0)	(1,0)	(1,0)	(1,0)	(1,0)	(1,0)	(1,0)	(1,0)	
L2C 57>	(1,7)	(-35,70)	(-43,1)	(-14,33)	(-56,1)	(1,0)	(1,0)	(1,0)	(1,0)	(1,0)	(1,0)	(1,0)	(1,0)	(1,0)	(1,0)	(1,0)	
L2C 58>	(-1,2)	(-28,24)	(1,2)	(-15,1)	(1,0)	(1,0)	(1,0)	(1,0)	(1,0)	(1,0)	(1,0)	(1,0)	(1,0)	(1,0)	(1,0)	(1,0)	
L2C 59>	(-59,4)	(1,0)	(1,0)	(1,0)	(1,0)	(1,0)	(1,0)	(1,0)	(1,0)	(1,0)	(1,0)	(1,0)	(1,0)	(1,0)	(1,0)	(1,0)	
L2C 60>	(1,5)	(1,0)	(1,0)	(1,0)	(1,0)	(1,0)	(1,0)	(1,0)	(1,0)	(1,0)	(1,0)	(1,0)	(1,0)	(1,0)	(1,0)	(1,0)	
L2C 61>	(1,94)	(1,0)	(1,0)	(1,0)	(1,0)	(1,0)	(1,0)	(1,0)	(1,0)	(1,0)	(1,0)	(1,0)	(1,0)	(1,0)	(1,0)	(1,0)	
L2C 62>	(-43,15)	(-28,53)	(1,0)	(1,0)	(1,0)	(1,0)	(1,0)	(1,0)	(1,0)	(1,0)	(1,0)	(1,0)	(1,0)	(1,0)	(1,0)	(1,0)	
L2C 63>	(-28,1)	(1,0)	(1,0)	(1,0)	(1,0)	(1,0)	(1,0)	(1,0)	(1,0)	(1,0)	(1,0)	(1,0)	(1,0)	(1,0)	(1,0)	(1,0)	

DRAM Statistics
 CHANNEL 0
 RQ ROW_BUFFER_HIT:      25506  ROW_BUFFER_MISS:      33244
 DBUS_CONGESTED:      45148
 WQ ROW_BUFFER_HIT:       1426  ROW_BUFFER_MISS:      10724  FULL:          0

 AVG_CONGESTED_CYCLE: 6
