
*** ChampSim Multicore Out-of-Order Simulator ***

Warmup Instructions: 1000000
Simulation Instructions: 10000000
Number of CPUs: 1
LLC sets: 2048
LLC ways: 16
Off-chip DRAM Size: 4096 MB Channels: 1 Width: 64-bit Data Rate: 3200 MT/s

CPU 0 runs /home/aniket/Desktop/sem/cs622/cs622-project/champsim/dpc3_traces/627.cam4_s-573B.champsimtrace.xz
Ultra pref. initializing...
Ultra pref. initialized
Ultra pref. initializing...
Ultra pref. initialized

Warmup complete CPU 0 instructions: 1000003 cycles: 290213 (Simulation time: 0 hr 0 min 0 sec) 

Heartbeat CPU 0 instructions: 10000003 cycles: 11903386 heartbeat IPC: 0.840097 cumulative IPC: 0.774982 (Simulation time: 0 hr 0 min 23 sec) 
Finished CPU 0 instructions: 10000000 cycles: 12658987 cumulative IPC: 0.789953 (Simulation time: 0 hr 0 min 26 sec) 

CPU 0 Branch Prediction Accuracy: 98.6665% MPKI: 1.8031 Average ROB Occupancy at Mispredict: 176.929

ChampSim completed all CPUs

Region of Interest Statistics

CPU 0 cumulative IPC: 0.789953 instructions: 10000000 cycles: 12658987
L1D TOTAL     ACCESS:    3543720  HIT:    3432313  MISS:     111407
L1D LOAD      ACCESS:    1028732  HIT:    1022121  MISS:       6611
L1D RFO       ACCESS:     690099  HIT:     608209  MISS:      81890
L1D PREFETCH  ACCESS:    1824889  HIT:    1801983  MISS:      22906
L1D WRITEBACK ACCESS:          0  HIT:          0  MISS:          0
L1D PREFETCH  REQUESTED:   17551813  ISSUED:   14062104  USEFUL:      14041  USELESS:       8575
L1D AVERAGE MISS LATENCY: 28529.3 cycles
L1I TOTAL     ACCESS:    2693885  HIT:    2691058  MISS:       2827
L1I LOAD      ACCESS:    2693885  HIT:    2691058  MISS:       2827
L1I RFO       ACCESS:          0  HIT:          0  MISS:          0
L1I PREFETCH  ACCESS:          0  HIT:          0  MISS:          0
L1I WRITEBACK ACCESS:          0  HIT:          0  MISS:          0
L1I PREFETCH  REQUESTED:          0  ISSUED:          0  USEFUL:          0  USELESS:          0
L1I AVERAGE MISS LATENCY: 54.6572 cycles
L2C TOTAL     ACCESS:     363627  HIT:     273304  MISS:      90323
L2C LOAD      ACCESS:       8904  HIT:       7288  MISS:       1616
L2C RFO       ACCESS:      81876  HIT:       8502  MISS:      73374
L2C PREFETCH  ACCESS:     187949  HIT:     172642  MISS:      15307
L2C WRITEBACK ACCESS:      84898  HIT:      84872  MISS:         26
L2C PREFETCH  REQUESTED:     434837  ISSUED:     284262  USEFUL:       3533  USELESS:       7008
L2C AVERAGE MISS LATENCY: 546.501 cycles
LLC TOTAL     ACCESS:     171173  HIT:      92737  MISS:      78436
LLC LOAD      ACCESS:       1454  HIT:        662  MISS:        792
LLC RFO       ACCESS:      73371  HIT:       4178  MISS:      69193
LLC PREFETCH  ACCESS:      15472  HIT:       7021  MISS:       8451
LLC WRITEBACK ACCESS:      80876  HIT:      80876  MISS:          0
LLC PREFETCH  REQUESTED:          0  ISSUED:          0  USEFUL:        297  USELESS:         50
LLC AVERAGE MISS LATENCY: 592.948 cycles
Major fault: 0 Minor fault: 2274

L1D -512>	(2,52)	(20,33)	(16,3)	(3,7)	(-2,4)	(0,38)	(1,73)	(106,3)	(200,11)	(4,11)	(-1,3)	(-8,3)	(-200,82)	(-199,6)	(30,1)	(8,6)	
L1D -511>	(1,23)	(3,1)	(4,3)	(2,5)	(1,0)	(1,0)	(1,0)	(1,0)	(1,0)	(1,0)	(1,0)	(1,0)	(1,0)	(1,0)	(1,0)	(1,0)	
L1D -510>	(2,1)	(5,1)	(1,3)	(3,2)	(4,1)	(1,0)	(1,0)	(1,0)	(1,0)	(1,0)	(1,0)	(1,0)	(1,0)	(1,0)	(1,0)	(1,0)	
L1D -509>	(2,1)	(5,1)	(12,1)	(1,0)	(1,0)	(1,0)	(1,0)	(1,0)	(1,0)	(1,0)	(1,0)	(1,0)	(1,0)	(1,0)	(1,0)	(1,0)	
L1D -508>	(1,2)	(2,1)	(3,2)	(4,1)	(8,1)	(12,1)	(1,0)	(1,0)	(1,0)	(1,0)	(1,0)	(1,0)	(1,0)	(1,0)	(1,0)	(1,0)	
L1D -507>	(4,1)	(1,0)	(1,0)	(1,0)	(1,0)	(1,0)	(1,0)	(1,0)	(1,0)	(1,0)	(1,0)	(1,0)	(1,0)	(1,0)	(1,0)	(1,0)	
L1D -506>	(4,1)	(-3,1)	(1,0)	(1,0)	(1,0)	(1,0)	(1,0)	(1,0)	(1,0)	(1,0)	(1,0)	(1,0)	(1,0)	(1,0)	(1,0)	(1,0)	
L1D -505>	(3,1)	(4,1)	(1,0)	(1,0)	(1,0)	(1,0)	(1,0)	(1,0)	(1,0)	(1,0)	(1,0)	(1,0)	(1,0)	(1,0)	(1,0)	(1,0)	
L1D -504>	(12,1)	(1,0)	(1,0)	(1,0)	(1,0)	(1,0)	(1,0)	(1,0)	(1,0)	(1,0)	(1,0)	(1,0)	(1,0)	(1,0)	(1,0)	(1,0)	
L1D -503>	(502,1)	(1,1)	(1,0)	(1,0)	(1,0)	(1,0)	(1,0)	(1,0)	(1,0)	(1,0)	(1,0)	(1,0)	(1,0)	(1,0)	(1,0)	(1,0)	
L1D -502>	(3,1)	(1,0)	(1,0)	(1,0)	(1,0)	(1,0)	(1,0)	(1,0)	(1,0)	(1,0)	(1,0)	(1,0)	(1,0)	(1,0)	(1,0)	(1,0)	
L1D -501>	(1,0)	(1,0)	(1,0)	(1,0)	(1,0)	(1,0)	(1,0)	(1,0)	(1,0)	(1,0)	(1,0)	(1,0)	(1,0)	(1,0)	(1,0)	(1,0)	
L1D -500>	(1,0)	(1,0)	(1,0)	(1,0)	(1,0)	(1,0)	(1,0)	(1,0)	(1,0)	(1,0)	(1,0)	(1,0)	(1,0)	(1,0)	(1,0)	(1,0)	
L1D -499>	(500,2)	(499,1)	(1,0)	(1,0)	(1,0)	(1,0)	(1,0)	(1,0)	(1,0)	(1,0)	(1,0)	(1,0)	(1,0)	(1,0)	(1,0)	(1,0)	
L1D -498>	(499,2)	(1,0)	(1,0)	(1,0)	(1,0)	(1,0)	(1,0)	(1,0)	(1,0)	(1,0)	(1,0)	(1,0)	(1,0)	(1,0)	(1,0)	(1,0)	
L1D -497>	(498,3)	(1,0)	(1,0)	(1,0)	(1,0)	(1,0)	(1,0)	(1,0)	(1,0)	(1,0)	(1,0)	(1,0)	(1,0)	(1,0)	(1,0)	(1,0)	
L1D -496>	(497,3)	(496,1)	(1,0)	(1,0)	(1,0)	(1,0)	(1,0)	(1,0)	(1,0)	(1,0)	(1,0)	(1,0)	(1,0)	(1,0)	(1,0)	(1,0)	
L1D -495>	(93,4)	(496,2)	(1,0)	(1,0)	(1,0)	(1,0)	(1,0)	(1,0)	(1,0)	(1,0)	(1,0)	(1,0)	(1,0)	(1,0)	(1,0)	(1,0)	
L1D -494>	(495,3)	(493,1)	(1,0)	(1,0)	(1,0)	(1,0)	(1,0)	(1,0)	(1,0)	(1,0)	(1,0)	(1,0)	(1,0)	(1,0)	(1,0)	(1,0)	
L1D -493>	(494,3)	(493,2)	(1,1)	(1,0)	(1,0)	(1,0)	(1,0)	(1,0)	(1,0)	(1,0)	(1,0)	(1,0)	(1,0)	(1,0)	(1,0)	(1,0)	
L1D -492>	(493,1)	(1,0)	(1,0)	(1,0)	(1,0)	(1,0)	(1,0)	(1,0)	(1,0)	(1,0)	(1,0)	(1,0)	(1,0)	(1,0)	(1,0)	(1,0)	
L1D -491>	(418,8)	(1,30)	(352,3)	(492,3)	(1,0)	(1,0)	(1,0)	(1,0)	(1,0)	(1,0)	(1,0)	(1,0)	(1,0)	(1,0)	(1,0)	(1,0)	
L1D -490>	(1,7)	(418,2)	(352,1)	(491,3)	(490,1)	(1,0)	(1,0)	(1,0)	(1,0)	(1,0)	(1,0)	(1,0)	(1,0)	(1,0)	(1,0)	(1,0)	
L1D -489>	(490,2)	(1,0)	(1,0)	(1,0)	(1,0)	(1,0)	(1,0)	(1,0)	(1,0)	(1,0)	(1,0)	(1,0)	(1,0)	(1,0)	(1,0)	(1,0)	
L1D -488>	(290,1)	(2,1)	(489,3)	(1,0)	(1,0)	(1,0)	(1,0)	(1,0)	(1,0)	(1,0)	(1,0)	(1,0)	(1,0)	(1,0)	(1,0)	(1,0)	
L1D -487>	(488,1)	(2,2)	(1,1)	(1,0)	(1,0)	(1,0)	(1,0)	(1,0)	(1,0)	(1,0)	(1,0)	(1,0)	(1,0)	(1,0)	(1,0)	(1,0)	
L1D -486>	(1,1)	(2,1)	(487,1)	(1,0)	(1,0)	(1,0)	(1,0)	(1,0)	(1,0)	(1,0)	(1,0)	(1,0)	(1,0)	(1,0)	(1,0)	(1,0)	
L1D -485>	(4,1)	(2,1)	(1,0)	(1,0)	(1,0)	(1,0)	(1,0)	(1,0)	(1,0)	(1,0)	(1,0)	(1,0)	(1,0)	(1,0)	(1,0)	(1,0)	
L1D -484>	(1,1)	(1,0)	(1,0)	(1,0)	(1,0)	(1,0)	(1,0)	(1,0)	(1,0)	(1,0)	(1,0)	(1,0)	(1,0)	(1,0)	(1,0)	(1,0)	
L1D -483>	(1,1)	(1,0)	(1,0)	(1,0)	(1,0)	(1,0)	(1,0)	(1,0)	(1,0)	(1,0)	(1,0)	(1,0)	(1,0)	(1,0)	(1,0)	(1,0)	
L1D -482>	(2,3)	(0,1)	(1,1)	(481,1)	(1,0)	(1,0)	(1,0)	(1,0)	(1,0)	(1,0)	(1,0)	(1,0)	(1,0)	(1,0)	(1,0)	(1,0)	
L1D -481>	(1,0)	(1,0)	(1,0)	(1,0)	(1,0)	(1,0)	(1,0)	(1,0)	(1,0)	(1,0)	(1,0)	(1,0)	(1,0)	(1,0)	(1,0)	(1,0)	
L1D -480>	(482,2)	(2,3)	(1,0)	(1,0)	(1,0)	(1,0)	(1,0)	(1,0)	(1,0)	(1,0)	(1,0)	(1,0)	(1,0)	(1,0)	(1,0)	(1,0)	
L1D -479>	(8,2)	(1,0)	(1,0)	(1,0)	(1,0)	(1,0)	(1,0)	(1,0)	(1,0)	(1,0)	(1,0)	(1,0)	(1,0)	(1,0)	(1,0)	(1,0)	
L1D -478>	(1,2)	(3,1)	(1,0)	(1,0)	(1,0)	(1,0)	(1,0)	(1,0)	(1,0)	(1,0)	(1,0)	(1,0)	(1,0)	(1,0)	(1,0)	(1,0)	
L1D -477>	(202,2)	(-1,2)	(1,3)	(8,1)	(1,0)	(1,0)	(1,0)	(1,0)	(1,0)	(1,0)	(1,0)	(1,0)	(1,0)	(1,0)	(1,0)	(1,0)	
L1D -476>	(1,2)	(478,3)	(1,0)	(1,0)	(1,0)	(1,0)	(1,0)	(1,0)	(1,0)	(1,0)	(1,0)	(1,0)	(1,0)	(1,0)	(1,0)	(1,0)	
L1D -475>	(1,1)	(1,0)	(1,0)	(1,0)	(1,0)	(1,0)	(1,0)	(1,0)	(1,0)	(1,0)	(1,0)	(1,0)	(1,0)	(1,0)	(1,0)	(1,0)	
L1D -474>	(1,4)	(475,5)	(37,3)	(38,3)	(1,0)	(1,0)	(1,0)	(1,0)	(1,0)	(1,0)	(1,0)	(1,0)	(1,0)	(1,0)	(1,0)	(1,0)	
L1D -473>	(202,1)	(1,0)	(1,0)	(1,0)	(1,0)	(1,0)	(1,0)	(1,0)	(1,0)	(1,0)	(1,0)	(1,0)	(1,0)	(1,0)	(1,0)	(1,0)	
L1D -472>	(3,1)	(474,3)	(1,2)	(0,1)	(1,0)	(1,0)	(1,0)	(1,0)	(1,0)	(1,0)	(1,0)	(1,0)	(1,0)	(1,0)	(1,0)	(1,0)	
L1D -471>	(1,4)	(470,1)	(1,0)	(1,0)	(1,0)	(1,0)	(1,0)	(1,0)	(1,0)	(1,0)	(1,0)	(1,0)	(1,0)	(1,0)	(1,0)	(1,0)	
L1D -470>	(3,1)	(1,0)	(1,0)	(1,0)	(1,0)	(1,0)	(1,0)	(1,0)	(1,0)	(1,0)	(1,0)	(1,0)	(1,0)	(1,0)	(1,0)	(1,0)	
L1D -469>	(202,1)	(1,0)	(1,0)	(1,0)	(1,0)	(1,0)	(1,0)	(1,0)	(1,0)	(1,0)	(1,0)	(1,0)	(1,0)	(1,0)	(1,0)	(1,0)	
L1D -468>	(470,2)	(2,1)	(0,2)	(1,2)	(202,1)	(1,0)	(1,0)	(1,0)	(1,0)	(1,0)	(1,0)	(1,0)	(1,0)	(1,0)	(1,0)	(1,0)	
L1D -467>	(465,1)	(1,0)	(1,0)	(1,0)	(1,0)	(1,0)	(1,0)	(1,0)	(1,0)	(1,0)	(1,0)	(1,0)	(1,0)	(1,0)	(1,0)	(1,0)	
L1D -466>	(0,1)	(2,1)	(1,1)	(214,1)	(1,0)	(1,0)	(1,0)	(1,0)	(1,0)	(1,0)	(1,0)	(1,0)	(1,0)	(1,0)	(1,0)	(1,0)	
L1D -465>	(1,1)	(202,1)	(1,0)	(1,0)	(1,0)	(1,0)	(1,0)	(1,0)	(1,0)	(1,0)	(1,0)	(1,0)	(1,0)	(1,0)	(1,0)	(1,0)	
L1D -464>	(0,3)	(466,3)	(1,1)	(2,1)	(3,1)	(94,1)	(1,0)	(1,0)	(1,0)	(1,0)	(1,0)	(1,0)	(1,0)	(1,0)	(1,0)	(1,0)	
L1D -463>	(1,1)	(405,1)	(432,1)	(1,0)	(1,0)	(1,0)	(1,0)	(1,0)	(1,0)	(1,0)	(1,0)	(1,0)	(1,0)	(1,0)	(1,0)	(1,0)	
L1D -462>	(1,2)	(2,1)	(466,1)	(0,1)	(392,1)	(1,0)	(1,0)	(1,0)	(1,0)	(1,0)	(1,0)	(1,0)	(1,0)	(1,0)	(1,0)	(1,0)	
L1D -461>	(202,1)	(161,1)	(1,0)	(1,0)	(1,0)	(1,0)	(1,0)	(1,0)	(1,0)	(1,0)	(1,0)	(1,0)	(1,0)	(1,0)	(1,0)	(1,0)	
L1D -460>	(0,3)	(462,1)	(2,1)	(1,3)	(3,1)	(4,1)	(1,0)	(1,0)	(1,0)	(1,0)	(1,0)	(1,0)	(1,0)	(1,0)	(1,0)	(1,0)	
L1D -459>	(98,1)	(1,0)	(1,0)	(1,0)	(1,0)	(1,0)	(1,0)	(1,0)	(1,0)	(1,0)	(1,0)	(1,0)	(1,0)	(1,0)	(1,0)	(1,0)	
L1D -458>	(2,1)	(1,2)	(462,1)	(441,1)	(1,0)	(1,0)	(1,0)	(1,0)	(1,0)	(1,0)	(1,0)	(1,0)	(1,0)	(1,0)	(1,0)	(1,0)	
L1D -457>	(457,1)	(202,2)	(1,0)	(1,0)	(1,0)	(1,0)	(1,0)	(1,0)	(1,0)	(1,0)	(1,0)	(1,0)	(1,0)	(1,0)	(1,0)	(1,0)	
L1D -456>	(2,2)	(458,5)	(0,1)	(1,3)	(1,0)	(1,0)	(1,0)	(1,0)	(1,0)	(1,0)	(1,0)	(1,0)	(1,0)	(1,0)	(1,0)	(1,0)	
L1D -455>	(1,3)	(1,0)	(1,0)	(1,0)	(1,0)	(1,0)	(1,0)	(1,0)	(1,0)	(1,0)	(1,0)	(1,0)	(1,0)	(1,0)	(1,0)	(1,0)	
L1D -454>	(0,1)	(1,3)	(2,1)	(458,1)	(456,1)	(453,1)	(1,0)	(1,0)	(1,0)	(1,0)	(1,0)	(1,0)	(1,0)	(1,0)	(1,0)	(1,0)	
L1D -453>	(1,1)	(202,1)	(1,0)	(1,0)	(1,0)	(1,0)	(1,0)	(1,0)	(1,0)	(1,0)	(1,0)	(1,0)	(1,0)	(1,0)	(1,0)	(1,0)	
L1D -452>	(3,1)	(0,4)	(454,1)	(2,2)	(452,1)	(1,2)	(-1,1)	(1,0)	(1,0)	(1,0)	(1,0)	(1,0)	(1,0)	(1,0)	(1,0)	(1,0)	
L1D -451>	(130,1)	(1,1)	(165,1)	(1,0)	(1,0)	(1,0)	(1,0)	(1,0)	(1,0)	(1,0)	(1,0)	(1,0)	(1,0)	(1,0)	(1,0)	(1,0)	
L1D -450>	(454,2)	(2,1)	(1,1)	(3,1)	(301,1)	(157,1)	(1,0)	(1,0)	(1,0)	(1,0)	(1,0)	(1,0)	(1,0)	(1,0)	(1,0)	(1,0)	
L1D -449>	(202,3)	(1,1)	(2,1)	(1,0)	(1,0)	(1,0)	(1,0)	(1,0)	(1,0)	(1,0)	(1,0)	(1,0)	(1,0)	(1,0)	(1,0)	(1,0)	
L1D -448>	(1,8)	(450,6)	(3,1)	(2,1)	(1,0)	(1,0)	(1,0)	(1,0)	(1,0)	(1,0)	(1,0)	(1,0)	(1,0)	(1,0)	(1,0)	(1,0)	
L1D -447>	(1,3)	(1,0)	(1,0)	(1,0)	(1,0)	(1,0)	(1,0)	(1,0)	(1,0)	(1,0)	(1,0)	(1,0)	(1,0)	(1,0)	(1,0)	(1,0)	
L1D -446>	(2,2)	(1,2)	(450,1)	(302,1)	(1,0)	(1,0)	(1,0)	(1,0)	(1,0)	(1,0)	(1,0)	(1,0)	(1,0)	(1,0)	(1,0)	(1,0)	
L1D -445>	(1,5)	(202,2)	(1,0)	(1,0)	(1,0)	(1,0)	(1,0)	(1,0)	(1,0)	(1,0)	(1,0)	(1,0)	(1,0)	(1,0)	(1,0)	(1,0)	
L1D -444>	(446,5)	(2,3)	(0,3)	(3,1)	(1,1)	(8,1)	(1,0)	(1,0)	(1,0)	(1,0)	(1,0)	(1,0)	(1,0)	(1,0)	(1,0)	(1,0)	
L1D -443>	(1,1)	(1,0)	(1,0)	(1,0)	(1,0)	(1,0)	(1,0)	(1,0)	(1,0)	(1,0)	(1,0)	(1,0)	(1,0)	(1,0)	(1,0)	(1,0)	
L1D -442>	(3,2)	(446,2)	(1,1)	(106,1)	(287,1)	(1,0)	(1,0)	(1,0)	(1,0)	(1,0)	(1,0)	(1,0)	(1,0)	(1,0)	(1,0)	(1,0)	
L1D -441>	(2,1)	(441,1)	(202,2)	(1,2)	(1,0)	(1,0)	(1,0)	(1,0)	(1,0)	(1,0)	(1,0)	(1,0)	(1,0)	(1,0)	(1,0)	(1,0)	
L1D -440>	(442,5)	(0,3)	(2,2)	(1,5)	(289,1)	(1,0)	(1,0)	(1,0)	(1,0)	(1,0)	(1,0)	(1,0)	(1,0)	(1,0)	(1,0)	(1,0)	
L1D -439>	(1,10)	(110,1)	(136,2)	(138,1)	(1,0)	(1,0)	(1,0)	(1,0)	(1,0)	(1,0)	(1,0)	(1,0)	(1,0)	(1,0)	(1,0)	(1,0)	
L1D -438>	(1,5)	(0,1)	(442,1)	(440,1)	(2,2)	(357,1)	(126,1)	(1,0)	(1,0)	(1,0)	(1,0)	(1,0)	(1,0)	(1,0)	(1,0)	(1,0)	
L1D -437>	(1,6)	(202,5)	(136,1)	(1,0)	(1,0)	(1,0)	(1,0)	(1,0)	(1,0)	(1,0)	(1,0)	(1,0)	(1,0)	(1,0)	(1,0)	(1,0)	
L1D -436>	(0,6)	(438,5)	(3,1)	(1,6)	(2,1)	(1,0)	(1,0)	(1,0)	(1,0)	(1,0)	(1,0)	(1,0)	(1,0)	(1,0)	(1,0)	(1,0)	
L1D -435>	(1,3)	(1,0)	(1,0)	(1,0)	(1,0)	(1,0)	(1,0)	(1,0)	(1,0)	(1,0)	(1,0)	(1,0)	(1,0)	(1,0)	(1,0)	(1,0)	
L1D -434>	(3,2)	(438,2)	(1,1)	(1,0)	(1,0)	(1,0)	(1,0)	(1,0)	(1,0)	(1,0)	(1,0)	(1,0)	(1,0)	(1,0)	(1,0)	(1,0)	
L1D -433>	(1,5)	(202,2)	(2,1)	(372,1)	(1,0)	(1,0)	(1,0)	(1,0)	(1,0)	(1,0)	(1,0)	(1,0)	(1,0)	(1,0)	(1,0)	(1,0)	
L1D -432>	(2,3)	(0,5)	(434,3)	(202,1)	(1,5)	(3,1)	(433,1)	(1,0)	(1,0)	(1,0)	(1,0)	(1,0)	(1,0)	(1,0)	(1,0)	(1,0)	
L1D -431>	(429,1)	(1,12)	(280,8)	(48,1)	(1,0)	(1,0)	(1,0)	(1,0)	(1,0)	(1,0)	(1,0)	(1,0)	(1,0)	(1,0)	(1,0)	(1,0)	
L1D -430>	(0,2)	(2,1)	(1,3)	(3,1)	(434,2)	(433,1)	(344,2)	(1,0)	(1,0)	(1,0)	(1,0)	(1,0)	(1,0)	(1,0)	(1,0)	(1,0)	
L1D -429>	(202,2)	(429,1)	(1,2)	(1,0)	(1,0)	(1,0)	(1,0)	(1,0)	(1,0)	(1,0)	(1,0)	(1,0)	(1,0)	(1,0)	(1,0)	(1,0)	
L1D -428>	(0,4)	(430,6)	(1,5)	(2,3)	(202,1)	(3,1)	(429,1)	(1,0)	(1,0)	(1,0)	(1,0)	(1,0)	(1,0)	(1,0)	(1,0)	(1,0)	
L1D -427>	(1,12)	(218,9)	(1,0)	(1,0)	(1,0)	(1,0)	(1,0)	(1,0)	(1,0)	(1,0)	(1,0)	(1,0)	(1,0)	(1,0)	(1,0)	(1,0)	
L1D -426>	(2,3)	(430,4)	(0,2)	(1,2)	(426,1)	(1,0)	(1,0)	(1,0)	(1,0)	(1,0)	(1,0)	(1,0)	(1,0)	(1,0)	(1,0)	(1,0)	
L1D -425>	(202,6)	(425,2)	(2,1)	(1,0)	(1,0)	(1,0)	(1,0)	(1,0)	(1,0)	(1,0)	(1,0)	(1,0)	(1,0)	(1,0)	(1,0)	(1,0)	
L1D -424>	(426,5)	(2,4)	(1,6)	(0,5)	(368,1)	(183,1)	(1,0)	(1,0)	(1,0)	(1,0)	(1,0)	(1,0)	(1,0)	(1,0)	(1,0)	(1,0)	
L1D -423>	(318,22)	(1,2)	(425,1)	(1,0)	(1,0)	(1,0)	(1,0)	(1,0)	(1,0)	(1,0)	(1,0)	(1,0)	(1,0)	(1,0)	(1,0)	(1,0)	
L1D -422>	(1,22)	(426,2)	(2,2)	(3,1)	(420,1)	(0,1)	(-1,2)	(423,115)	(417,54)	(384,6)	(383,32)	(418,4)	(137,1)	(95,1)	(173,1)	(-63,1)	
L1D -421>	(202,7)	(421,2)	(422,2)	(1,2)	(1,0)	(1,0)	(1,0)	(1,0)	(1,0)	(1,0)	(1,0)	(1,0)	(1,0)	(1,0)	(1,0)	(1,0)	
L1D -420>	(422,7)	(0,4)	(1,7)	(202,1)	(2,2)	(437,1)	(1,0)	(1,0)	(1,0)	(1,0)	(1,0)	(1,0)	(1,0)	(1,0)	(1,0)	(1,0)	
L1D -419>	(1,3)	(2,1)	(417,2)	(8,1)	(1,0)	(1,0)	(1,0)	(1,0)	(1,0)	(1,0)	(1,0)	(1,0)	(1,0)	(1,0)	(1,0)	(1,0)	
L1D -418>	(0,1)	(2,5)	(422,3)	(3,1)	(274,1)	(318,1)	(460,1)	(1,1)	(1,0)	(1,0)	(1,0)	(1,0)	(1,0)	(1,0)	(1,0)	(1,0)	
L1D -417>	(202,2)	(1,3)	(1,0)	(1,0)	(1,0)	(1,0)	(1,0)	(1,0)	(1,0)	(1,0)	(1,0)	(1,0)	(1,0)	(1,0)	(1,0)	(1,0)	
L1D -416>	(1,7)	(0,6)	(418,6)	(2,3)	(3,1)	(358,1)	(363,1)	(1,0)	(1,0)	(1,0)	(1,0)	(1,0)	(1,0)	(1,0)	(1,0)	(1,0)	
L1D -415>	(202,1)	(413,1)	(4,1)	(1,1)	(1,0)	(1,0)	(1,0)	(1,0)	(1,0)	(1,0)	(1,0)	(1,0)	(1,0)	(1,0)	(1,0)	(1,0)	
L1D -414>	(1,3)	(3,1)	(418,3)	(2,1)	(226,1)	(413,1)	(1,0)	(1,0)	(1,0)	(1,0)	(1,0)	(1,0)	(1,0)	(1,0)	(1,0)	(1,0)	
L1D -413>	(202,3)	(1,3)	(1,0)	(1,0)	(1,0)	(1,0)	(1,0)	(1,0)	(1,0)	(1,0)	(1,0)	(1,0)	(1,0)	(1,0)	(1,0)	(1,0)	
L1D -412>	(414,5)	(2,5)	(0,8)	(1,11)	(202,2)	(352,1)	(88,1)	(1,0)	(1,0)	(1,0)	(1,0)	(1,0)	(1,0)	(1,0)	(1,0)	(1,0)	
L1D -411>	(1,1)	(376,3)	(294,1)	(1,0)	(1,0)	(1,0)	(1,0)	(1,0)	(1,0)	(1,0)	(1,0)	(1,0)	(1,0)	(1,0)	(1,0)	(1,0)	
L1D -410>	(2,1)	(1,4)	(0,1)	(414,2)	(3,1)	(376,1)	(1,0)	(1,0)	(1,0)	(1,0)	(1,0)	(1,0)	(1,0)	(1,0)	(1,0)	(1,0)	
L1D -409>	(202,7)	(1,3)	(430,1)	(1,0)	(1,0)	(1,0)	(1,0)	(1,0)	(1,0)	(1,0)	(1,0)	(1,0)	(1,0)	(1,0)	(1,0)	(1,0)	
L1D -408>	(2,2)	(0,4)	(408,1)	(3,3)	(410,7)	(1,5)	(-1,1)	(377,1)	(1,0)	(1,0)	(1,0)	(1,0)	(1,0)	(1,0)	(1,0)	(1,0)	
L1D -407>	(202,1)	(1,2)	(180,1)	(1,0)	(1,0)	(1,0)	(1,0)	(1,0)	(1,0)	(1,0)	(1,0)	(1,0)	(1,0)	(1,0)	(1,0)	(1,0)	
L1D -406>	(410,4)	(2,2)	(3,2)	(0,1)	(1,3)	(-1,1)	(1,0)	(1,0)	(1,0)	(1,0)	(1,0)	(1,0)	(1,0)	(1,0)	(1,0)	(1,0)	
L1D -405>	(2,2)	(202,2)	(1,49)	(-1,1)	(270,14)	(272,11)	(404,4)	(1,0)	(1,0)	(1,0)	(1,0)	(1,0)	(1,0)	(1,0)	(1,0)	(1,0)	
L1D -404>	(202,2)	(406,9)	(0,5)	(2,1)	(3,1)	(1,17)	(-1,3)	(400,1)	(404,1)	(85,1)	(1,0)	(1,0)	(1,0)	(1,0)	(1,0)	(1,0)	
L1D -403>	(401,2)	(2,88)	(1,36)	(200,49)	(3,88)	(-16,1)	(289,1)	(1,0)	(1,0)	(1,0)	(1,0)	(1,0)	(1,0)	(1,0)	(1,0)	(1,0)	
L1D -402>	(1,38)	(0,2)	(2,122)	(406,2)	(3,48)	(200,20)	(261,1)	(1,0)	(1,0)	(1,0)	(1,0)	(1,0)	(1,0)	(1,0)	(1,0)	(1,0)	
L1D -401>	(202,7)	(1,31)	(200,4)	(2,10)	(3,3)	(198,1)	(268,15)	(400,1)	(1,0)	(1,0)	(1,0)	(1,0)	(1,0)	(1,0)	(1,0)	(1,0)	
L1D -400>	(202,2)	(402,8)	(0,8)	(3,18)	(1,14)	(2,31)	(-2,1)	(198,6)	(200,4)	(241,1)	(400,2)	(72,1)	(1,0)	(1,0)	(1,0)	(1,0)	
L1D -399>	(1,78)	(202,1)	(2,64)	(4,2)	(200,84)	(3,34)	(201,2)	(1,0)	(1,0)	(1,0)	(1,0)	(1,0)	(1,0)	(1,0)	(1,0)	(1,0)	
L1D -398>	(3,24)	(402,2)	(1,53)	(0,1)	(2,57)	(200,90)	(201,2)	(1,0)	(1,0)	(1,0)	(1,0)	(1,0)	(1,0)	(1,0)	(1,0)	(1,0)	
L1D -397>	(202,6)	(1,14)	(200,5)	(2,8)	(201,1)	(198,2)	(199,2)	(398,1)	(3,1)	(108,1)	(1,0)	(1,0)	(1,0)	(1,0)	(1,0)	(1,0)	
L1D -396>	(4,24)	(8,12)	(198,2)	(2,17)	(1,29)	(397,1)	(200,102)	(134,1)	(1,0)	(1,0)	(1,0)	(1,0)	(1,0)	(1,0)	(1,0)	(1,0)	
L1D -395>	(393,1)	(1,3)	(2,1)	(200,20)	(4,3)	(198,1)	(1,0)	(1,0)	(1,0)	(1,0)	(1,0)	(1,0)	(1,0)	(1,0)	(1,0)	(1,0)	
L1D -394>	(0,2)	(2,4)	(1,2)	(398,2)	(198,2)	(328,1)	(395,3)	(441,3)	(1,0)	(1,0)	(1,0)	(1,0)	(1,0)	(1,0)	(1,0)	(1,0)	
L1D -393>	(202,5)	(393,2)	(1,2)	(1,0)	(1,0)	(1,0)	(1,0)	(1,0)	(1,0)	(1,0)	(1,0)	(1,0)	(1,0)	(1,0)	(1,0)	(1,0)	
L1D -392>	(202,4)	(0,7)	(394,10)	(1,4)	(2,4)	(3,1)	(4,4)	(8,8)	(-22,1)	(44,1)	(1,0)	(1,0)	(1,0)	(1,0)	(1,0)	(1,0)	
L1D -391>	(1,8)	(2,2)	(6,4)	(223,1)	(390,1)	(1,0)	(1,0)	(1,0)	(1,0)	(1,0)	(1,0)	(1,0)	(1,0)	(1,0)	(1,0)	(1,0)	
L1D -390>	(0,1)	(2,3)	(394,4)	(3,1)	(1,2)	(4,1)	(277,1)	(245,1)	(390,4)	(1,0)	(1,0)	(1,0)	(1,0)	(1,0)	(1,0)	(1,0)	
L1D -389>	(202,6)	(1,4)	(389,1)	(5,1)	(388,1)	(1,0)	(1,0)	(1,0)	(1,0)	(1,0)	(1,0)	(1,0)	(1,0)	(1,0)	(1,0)	(1,0)	
L1D -388>	(4,16)	(6,1)	(8,5)	(2,3)	(1,8)	(0,3)	(202,1)	(390,6)	(388,1)	(301,1)	(255,1)	(1,0)	(1,0)	(1,0)	(1,0)	(1,0)	
L1D -387>	(385,1)	(1,3)	(1,0)	(1,0)	(1,0)	(1,0)	(1,0)	(1,0)	(1,0)	(1,0)	(1,0)	(1,0)	(1,0)	(1,0)	(1,0)	(1,0)	
L1D -386>	(390,4)	(1,4)	(3,1)	(0,2)	(2,2)	(237,1)	(1,0)	(1,0)	(1,0)	(1,0)	(1,0)	(1,0)	(1,0)	(1,0)	(1,0)	(1,0)	
L1D -385>	(202,5)	(385,1)	(1,3)	(76,1)	(330,1)	(1,0)	(1,0)	(1,0)	(1,0)	(1,0)	(1,0)	(1,0)	(1,0)	(1,0)	(1,0)	(1,0)	
L1D -384>	(202,3)	(0,8)	(1,11)	(2,2)	(386,4)	(4,2)	(370,1)	(67,1)	(1,0)	(1,0)	(1,0)	(1,0)	(1,0)	(1,0)	(1,0)	(1,0)	
L1D -383>	(1,14)	(2,1)	(202,1)	(276,1)	(1,0)	(1,0)	(1,0)	(1,0)	(1,0)	(1,0)	(1,0)	(1,0)	(1,0)	(1,0)	(1,0)	(1,0)	
L1D -382>	(2,4)	(386,3)	(202,1)	(1,6)	(188,1)	(-18,1)	(377,1)	(1,0)	(1,0)	(1,0)	(1,0)	(1,0)	(1,0)	(1,0)	(1,0)	(1,0)	
L1D -381>	(202,8)	(1,13)	(380,2)	(1,0)	(1,0)	(1,0)	(1,0)	(1,0)	(1,0)	(1,0)	(1,0)	(1,0)	(1,0)	(1,0)	(1,0)	(1,0)	
L1D -380>	(0,6)	(382,8)	(2,4)	(3,2)	(1,5)	(8,5)	(381,1)	(16,1)	(1,0)	(1,0)	(1,0)	(1,0)	(1,0)	(1,0)	(1,0)	(1,0)	
L1D -379>	(202,1)	(1,3)	(8,1)	(1,0)	(1,0)	(1,0)	(1,0)	(1,0)	(1,0)	(1,0)	(1,0)	(1,0)	(1,0)	(1,0)	(1,0)	(1,0)	
L1D -378>	(202,2)	(1,5)	(3,2)	(382,1)	(2,3)	(-98,1)	(319,1)	(247,1)	(378,3)	(379,4)	(41,1)	(377,1)	(246,1)	(1,0)	(1,0)	(1,0)	
L1D -377>	(202,5)	(377,1)	(1,4)	(437,1)	(52,1)	(1,0)	(1,0)	(1,0)	(1,0)	(1,0)	(1,0)	(1,0)	(1,0)	(1,0)	(1,0)	(1,0)	
L1D -376>	(202,2)	(2,4)	(0,3)	(1,24)	(378,7)	(3,1)	(4,2)	(8,3)	(377,126)	(363,102)	(364,4)	(-1,1)	(287,1)	(408,1)	(390,1)	(1,0)	
L1D -375>	(1,11)	(2,1)	(376,3)	(1,0)	(1,0)	(1,0)	(1,0)	(1,0)	(1,0)	(1,0)	(1,0)	(1,0)	(1,0)	(1,0)	(1,0)	(1,0)	
L1D -374>	(2,1)	(1,3)	(378,4)	(3,1)	(202,1)	(4,1)	(76,1)	(374,3)	(138,1)	(1,0)	(1,0)	(1,0)	(1,0)	(1,0)	(1,0)	(1,0)	
L1D -373>	(202,7)	(1,3)	(1,0)	(1,0)	(1,0)	(1,0)	(1,0)	(1,0)	(1,0)	(1,0)	(1,0)	(1,0)	(1,0)	(1,0)	(1,0)	(1,0)	
L1D -372>	(202,1)	(3,2)	(0,10)	(374,7)	(2,2)	(1,3)	(4,1)	(8,3)	(-14,1)	(373,1)	(1,0)	(1,0)	(1,0)	(1,0)	(1,0)	(1,0)	
L1D -371>	(1,4)	(0,7)	(310,1)	(260,1)	(1,0)	(1,0)	(1,0)	(1,0)	(1,0)	(1,0)	(1,0)	(1,0)	(1,0)	(1,0)	(1,0)	(1,0)	
L1D -370>	(374,4)	(2,2)	(3,1)	(372,1)	(1,4)	(0,95)	(12,1)	(244,1)	(400,1)	(1,0)	(1,0)	(1,0)	(1,0)	(1,0)	(1,0)	(1,0)	
L1D -369>	(202,5)	(1,3)	(4,1)	(1,0)	(1,0)	(1,0)	(1,0)	(1,0)	(1,0)	(1,0)	(1,0)	(1,0)	(1,0)	(1,0)	(1,0)	(1,0)	
L1D -368>	(0,7)	(1,7)	(202,2)	(370,7)	(2,3)	(368,1)	(8,1)	(4,1)	(369,1)	(1,0)	(1,0)	(1,0)	(1,0)	(1,0)	(1,0)	(1,0)	
L1D -367>	(1,60)	(2,1)	(367,1)	(366,2)	(1,0)	(1,0)	(1,0)	(1,0)	(1,0)	(1,0)	(1,0)	(1,0)	(1,0)	(1,0)	(1,0)	(1,0)	
L1D -366>	(202,1)	(1,7)	(0,1)	(2,3)	(3,2)	(370,1)	(287,1)	(-8,1)	(366,3)	(1,0)	(1,0)	(1,0)	(1,0)	(1,0)	(1,0)	(1,0)	
L1D -365>	(202,7)	(1,8)	(364,2)	(365,75)	(-1,6)	(1,0)	(1,0)	(1,0)	(1,0)	(1,0)	(1,0)	(1,0)	(1,0)	(1,0)	(1,0)	(1,0)	
L1D -364>	(202,1)	(366,9)	(0,4)	(362,1)	(1,3)	(2,1)	(364,1)	(3,1)	(8,2)	(4,1)	(318,1)	(1,0)	(1,0)	(1,0)	(1,0)	(1,0)	
L1D -363>	(1,4)	(361,1)	(2,1)	(8,1)	(1,0)	(1,0)	(1,0)	(1,0)	(1,0)	(1,0)	(1,0)	(1,0)	(1,0)	(1,0)	(1,0)	(1,0)	
L1D -362>	(202,2)	(3,2)	(1,2)	(366,3)	(0,2)	(2,3)	(270,1)	(364,1)	(1,0)	(1,0)	(1,0)	(1,0)	(1,0)	(1,0)	(1,0)	(1,0)	
L1D -361>	(202,3)	(1,2)	(1,0)	(1,0)	(1,0)	(1,0)	(1,0)	(1,0)	(1,0)	(1,0)	(1,0)	(1,0)	(1,0)	(1,0)	(1,0)	(1,0)	
L1D -360>	(362,8)	(0,8)	(2,2)	(1,2)	(202,1)	(3,1)	(4,1)	(429,1)	(1,0)	(1,0)	(1,0)	(1,0)	(1,0)	(1,0)	(1,0)	(1,0)	
L1D -359>	(357,2)	(1,22)	(400,1)	(1,0)	(1,0)	(1,0)	(1,0)	(1,0)	(1,0)	(1,0)	(1,0)	(1,0)	(1,0)	(1,0)	(1,0)	(1,0)	
L1D -358>	(2,2)	(202,2)	(1,13)	(362,2)	(0,1)	(4,1)	(400,20)	(416,1)	(240,1)	(430,1)	(358,1)	(1,0)	(1,0)	(1,0)	(1,0)	(1,0)	
L1D -357>	(202,5)	(357,1)	(1,3)	(356,1)	(-66,1)	(1,0)	(1,0)	(1,0)	(1,0)	(1,0)	(1,0)	(1,0)	(1,0)	(1,0)	(1,0)	(1,0)	
L1D -356>	(0,8)	(2,4)	(358,6)	(202,1)	(1,6)	(3,1)	(8,4)	(4,1)	(356,2)	(-22,1)	(310,1)	(1,0)	(1,0)	(1,0)	(1,0)	(1,0)	
L1D -355>	(1,11)	(354,2)	(1,0)	(1,0)	(1,0)	(1,0)	(1,0)	(1,0)	(1,0)	(1,0)	(1,0)	(1,0)	(1,0)	(1,0)	(1,0)	(1,0)	
L1D -354>	(202,5)	(2,2)	(358,3)	(1,1)	(3,1)	(0,2)	(-1,1)	(171,1)	(231,1)	(355,1)	(1,0)	(1,0)	(1,0)	(1,0)	(1,0)	(1,0)	
L1D -353>	(202,9)	(1,13)	(353,2)	(1,0)	(1,0)	(1,0)	(1,0)	(1,0)	(1,0)	(1,0)	(1,0)	(1,0)	(1,0)	(1,0)	(1,0)	(1,0)	
L1D -352>	(2,4)	(0,8)	(1,9)	(354,6)	(3,1)	(4,3)	(8,2)	(353,44)	(147,20)	(167,11)	(349,1)	(1,0)	(1,0)	(1,0)	(1,0)	(1,0)	
L1D -351>	(202,1)	(349,2)	(4,1)	(1,35)	(260,1)	(350,1)	(1,0)	(1,0)	(1,0)	(1,0)	(1,0)	(1,0)	(1,0)	(1,0)	(1,0)	(1,0)	
L1D -350>	(202,2)	(354,5)	(1,13)	(3,2)	(0,1)	(2,3)	(351,40)	(259,18)	(211,11)	(212,1)	(-1,1)	(310,1)	(350,1)	(86,1)	(308,1)	(1,0)	
L1D -349>	(202,2)	(349,1)	(350,1)	(1,1)	(70,1)	(1,0)	(1,0)	(1,0)	(1,0)	(1,0)	(1,0)	(1,0)	(1,0)	(1,0)	(1,0)	(1,0)	
L1D -348>	(202,2)	(1,8)	(0,4)	(2,3)	(350,6)	(4,3)	(8,1)	(1,0)	(1,0)	(1,0)	(1,0)	(1,0)	(1,0)	(1,0)	(1,0)	(1,0)	
L1D -347>	(2,1)	(1,12)	(-1,1)	(1,0)	(1,0)	(1,0)	(1,0)	(1,0)	(1,0)	(1,0)	(1,0)	(1,0)	(1,0)	(1,0)	(1,0)	(1,0)	
L1D -346>	(2,4)	(350,2)	(1,5)	(202,1)	(266,1)	(213,1)	(1,0)	(1,0)	(1,0)	(1,0)	(1,0)	(1,0)	(1,0)	(1,0)	(1,0)	(1,0)	
L1D -345>	(202,4)	(1,40)	(345,1)	(4,10)	(344,4)	(173,1)	(141,1)	(1,0)	(1,0)	(1,0)	(1,0)	(1,0)	(1,0)	(1,0)	(1,0)	(1,0)	
L1D -344>	(346,9)	(380,1)	(2,2)	(0,4)	(3,1)	(1,6)	(8,1)	(4,2)	(344,2)	(86,1)	(1,0)	(1,0)	(1,0)	(1,0)	(1,0)	(1,0)	
L1D -343>	(1,46)	(342,2)	(1,0)	(1,0)	(1,0)	(1,0)	(1,0)	(1,0)	(1,0)	(1,0)	(1,0)	(1,0)	(1,0)	(1,0)	(1,0)	(1,0)	
L1D -342>	(1,10)	(3,2)	(202,1)	(346,2)	(2,2)	(340,1)	(0,1)	(86,1)	(1,0)	(1,0)	(1,0)	(1,0)	(1,0)	(1,0)	(1,0)	(1,0)	
L1D -341>	(202,7)	(1,73)	(324,13)	(285,1)	(340,2)	(280,1)	(1,0)	(1,0)	(1,0)	(1,0)	(1,0)	(1,0)	(1,0)	(1,0)	(1,0)	(1,0)	
L1D -340>	(1,25)	(342,8)	(2,3)	(0,4)	(3,2)	(4,3)	(8,1)	(-88,1)	(304,1)	(324,1)	(391,1)	(1,0)	(1,0)	(1,0)	(1,0)	(1,0)	
L1D -339>	(1,12)	(272,1)	(338,1)	(0,1)	(-1,1)	(315,1)	(1,0)	(1,0)	(1,0)	(1,0)	(1,0)	(1,0)	(1,0)	(1,0)	(1,0)	(1,0)	
L1D -338>	(202,2)	(1,4)	(2,3)	(0,2)	(342,1)	(138,1)	(115,1)	(188,1)	(1,0)	(1,0)	(1,0)	(1,0)	(1,0)	(1,0)	(1,0)	(1,0)	
L1D -337>	(202,7)	(1,2)	(82,1)	(336,1)	(1,0)	(1,0)	(1,0)	(1,0)	(1,0)	(1,0)	(1,0)	(1,0)	(1,0)	(1,0)	(1,0)	(1,0)	
L1D -336>	(3,3)	(338,12)	(1,7)	(0,4)	(202,1)	(2,2)	(337,1)	(24,1)	(1,0)	(1,0)	(1,0)	(1,0)	(1,0)	(1,0)	(1,0)	(1,0)	
L1D -335>	(1,2)	(-1,3)	(1,0)	(1,0)	(1,0)	(1,0)	(1,0)	(1,0)	(1,0)	(1,0)	(1,0)	(1,0)	(1,0)	(1,0)	(1,0)	(1,0)	
L1D -334>	(2,2)	(3,2)	(338,2)	(202,2)	(1,2)	(194,1)	(56,1)	(269,1)	(192,1)	(1,0)	(1,0)	(1,0)	(1,0)	(1,0)	(1,0)	(1,0)	
L1D -333>	(202,7)	(288,1)	(1,5)	(1,0)	(1,0)	(1,0)	(1,0)	(1,0)	(1,0)	(1,0)	(1,0)	(1,0)	(1,0)	(1,0)	(1,0)	(1,0)	
L1D -332>	(202,3)	(334,7)	(0,5)	(1,5)	(4,2)	(8,2)	(185,1)	(252,1)	(1,0)	(1,0)	(1,0)	(1,0)	(1,0)	(1,0)	(1,0)	(1,0)	
L1D -331>	(1,103)	(271,1)	(329,0)	(-1,3)	(2,3)	(288,5)	(328,10)	(1,0)	(1,0)	(1,0)	(1,0)	(1,0)	(1,0)	(1,0)	(1,0)	(1,0)	
L1D -330>	(1,12)	(0,1)	(2,1)	(202,1)	(334,4)	(3,1)	(-1,3)	(330,1)	(1,0)	(1,0)	(1,0)	(1,0)	(1,0)	(1,0)	(1,0)	(1,0)	
L1D -329>	(202,3)	(1,12)	(329,1)	(-1,84)	(1,0)	(1,0)	(1,0)	(1,0)	(1,0)	(1,0)	(1,0)	(1,0)	(1,0)	(1,0)	(1,0)	(1,0)	
L1D -328>	(0,9)	(3,2)	(330,5)	(1,7)	(2,1)	(4,3)	(8,4)	(-1,86)	(211,1)	(360,1)	(1,0)	(1,0)	(1,0)	(1,0)	(1,0)	(1,0)	
L1D -327>	(1,9)	(2,1)	(212,1)	(326,1)	(1,0)	(1,0)	(1,0)	(1,0)	(1,0)	(1,0)	(1,0)	(1,0)	(1,0)	(1,0)	(1,0)	(1,0)	
L1D -326>	(1,5)	(202,2)	(0,3)	(330,2)	(2,2)	(3,1)	(-142,1)	(221,1)	(326,1)	(179,1)	(321,1)	(1,0)	(1,0)	(1,0)	(1,0)	(1,0)	
L1D -325>	(202,10)	(1,6)	(1,0)	(1,0)	(1,0)	(1,0)	(1,0)	(1,0)	(1,0)	(1,0)	(1,0)	(1,0)	(1,0)	(1,0)	(1,0)	(1,0)	
L1D -324>	(0,8)	(326,7)	(2,4)	(202,1)	(1,2)	(4,4)	(8,2)	(324,1)	(105,1)	(1,0)	(1,0)	(1,0)	(1,0)	(1,0)	(1,0)	(1,0)	
L1D -323>	(2,1)	(321,1)	(1,4)	(-46,2)	(-1,1)	(1,0)	(1,0)	(1,0)	(1,0)	(1,0)	(1,0)	(1,0)	(1,0)	(1,0)	(1,0)	(1,0)	
L1D -322>	(202,2)	(2,3)	(1,2)	(326,3)	(3,2)	(0,1)	(208,1)	(200,1)	(1,0)	(1,0)	(1,0)	(1,0)	(1,0)	(1,0)	(1,0)	(1,0)	
L1D -321>	(1,2)	(194,1)	(318,22)	(202,6)	(321,6)	(441,1)	(1,0)	(1,0)	(1,0)	(1,0)	(1,0)	(1,0)	(1,0)	(1,0)	(1,0)	(1,0)	
L1D -320>	(318,2)	(2,4)	(322,8)	(202,2)	(0,10)	(1,4)	(8,1)	(157,1)	(321,67)	(320,3)	(-1,1)	(295,1)	(1,0)	(1,0)	(1,0)	(1,0)	
L1D -319>	(318,3)	(1,4)	(317,1)	(320,1)	(1,0)	(1,0)	(1,0)	(1,0)	(1,0)	(1,0)	(1,0)	(1,0)	(1,0)	(1,0)	(1,0)	(1,0)	
L1D -318>	(-3,1)	(2,18)	(194,1)	(0,4)	(322,4)	(198,1)	(1,5)	(-105,2)	(186,1)	(418,1)	(382,1)	(1,0)	(1,0)	(1,0)	(1,0)	(1,0)	
L1D -317>	(202,4)	(1,9)	(210,4)	(2,3)	(3,2)	(318,3)	(106,25)	(107,1)	(321,1)	(1,0)	(1,0)	(1,0)	(1,0)	(1,0)	(1,0)	(1,0)	
L1D -316>	(2,2)	(4,3)	(318,34)	(320,4)	(106,2)	(0,7)	(276,1)	(246,1)	(270,2)	(262,1)	(274,2)	(1,10)	(294,2)	(290,1)	(306,1)	(317,2)	
L1D -315>	(202,1)	(313,2)	(1,77)	(2,1)	(317,2)	(60,31)	(0,1)	(1,0)	(1,0)	(1,0)	(1,0)	(1,0)	(1,0)	(1,0)	(1,0)	(1,0)	
L1D -314>	(202,2)	(318,4)	(2,7)	(1,6)	(315,3)	(317,1)	(4,1)	(106,53)	(212,1)	(60,7)	(93,1)	(64,1)	(1,0)	(1,0)	(1,0)	(1,0)	
L1D -313>	(202,4)	(-1,5)	(106,1)	(1,8)	(1,0)	(1,0)	(1,0)	(1,0)	(1,0)	(1,0)	(1,0)	(1,0)	(1,0)	(1,0)	(1,0)	(1,0)	
L1D -312>	(202,2)	(2,6)	(1,11)	(0,7)	(314,5)	(412,1)	(316,2)	(4,2)	(62,1)	(-16,1)	(-1,1)	(109,1)	(297,1)	(439,1)	(1,0)	(1,0)	
L1D -311>	(2,1)	(1,35)	(0,1)	(1,0)	(1,0)	(1,0)	(1,0)	(1,0)	(1,0)	(1,0)	(1,0)	(1,0)	(1,0)	(1,0)	(1,0)	(1,0)	
L1D -310>	(202,2)	(2,3)	(308,1)	(1,5)	(0,3)	(3,2)	(314,2)	(120,1)	(-1,1)	(10,1)	(1,0)	(1,0)	(1,0)	(1,0)	(1,0)	(1,0)	
L1D -309>	(202,7)	(1,4)	(315,1)	(70,1)	(1,0)	(1,0)	(1,0)	(1,0)	(1,0)	(1,0)	(1,0)	(1,0)	(1,0)	(1,0)	(1,0)	(1,0)	
L1D -308>	(2,2)	(0,5)	(308,1)	(3,1)	(310,8)	(1,3)	(4,2)	(-22,1)	(159,1)	(458,1)	(215,1)	(355,1)	(70,1)	(1,0)	(1,0)	(1,0)	
L1D -307>	(202,1)	(2,2)	(1,11)	(4,2)	(-1,2)	(306,1)	(1,0)	(1,0)	(1,0)	(1,0)	(1,0)	(1,0)	(1,0)	(1,0)	(1,0)	(1,0)	
L1D -306>	(3,3)	(310,5)	(2,4)	(202,1)	(1,2)	(0,1)	(304,1)	(6,1)	(86,1)	(1,0)	(1,0)	(1,0)	(1,0)	(1,0)	(1,0)	(1,0)	
L1D -305>	(202,1)	(-1,1)	(1,2)	(1,0)	(1,0)	(1,0)	(1,0)	(1,0)	(1,0)	(1,0)	(1,0)	(1,0)	(1,0)	(1,0)	(1,0)	(1,0)	
L1D -304>	(202,4)	(306,10)	(1,6)	(0,3)	(2,1)	(4,3)	(8,1)	(68,1)	(1,0)	(1,0)	(1,0)	(1,0)	(1,0)	(1,0)	(1,0)	(1,0)	
L1D -303>	(1,110)	(301,1)	(2,3)	(-1,1)	(410,1)	(302,2)	(303,2)	(136,1)	(1,0)	(1,0)	(1,0)	(1,0)	(1,0)	(1,0)	(1,0)	(1,0)	
L1D -302>	(1,13)	(202,4)	(306,2)	(0,1)	(2,1)	(218,1)	(406,1)	(1,0)	(1,0)	(1,0)	(1,0)	(1,0)	(1,0)	(1,0)	(1,0)	(1,0)	
L1D -301>	(202,5)	(1,15)	(300,1)	(0,1)	(1,0)	(1,0)	(1,0)	(1,0)	(1,0)	(1,0)	(1,0)	(1,0)	(1,0)	(1,0)	(1,0)	(1,0)	
L1D -300>	(0,7)	(302,7)	(300,1)	(3,1)	(1,7)	(2,2)	(4,2)	(-1,1)	(247,1)	(268,1)	(1,0)	(1,0)	(1,0)	(1,0)	(1,0)	(1,0)	
L1D -299>	(1,21)	(297,1)	(190,1)	(2,2)	(-2,1)	(1,0)	(1,0)	(1,0)	(1,0)	(1,0)	(1,0)	(1,0)	(1,0)	(1,0)	(1,0)	(1,0)	
L1D -298>	(202,2)	(2,1)	(3,2)	(1,4)	(302,1)	(296,1)	(246,1)	(159,1)	(168,1)	(279,1)	(1,0)	(1,0)	(1,0)	(1,0)	(1,0)	(1,0)	
L1D -297>	(202,4)	(1,21)	(2,1)	(280,15)	(-1,2)	(1,0)	(1,0)	(1,0)	(1,0)	(1,0)	(1,0)	(1,0)	(1,0)	(1,0)	(1,0)	(1,0)	
L1D -296>	(202,2)	(1,9)	(298,8)	(0,8)	(2,3)	(3,3)	(296,1)	(4,1)	(8,1)	(50,1)	(231,1)	(-1,1)	(376,1)	(297,1)	(303,1)	(310,1)	
L1D -295>	(1,18)	(318,1)	(218,15)	(-1,2)	(294,1)	(1,0)	(1,0)	(1,0)	(1,0)	(1,0)	(1,0)	(1,0)	(1,0)	(1,0)	(1,0)	(1,0)	
L1D -294>	(2,8)	(1,4)	(0,3)	(292,1)	(298,2)	(202,1)	(17,1)	(132,1)	(294,1)	(1,0)	(1,0)	(1,0)	(1,0)	(1,0)	(1,0)	(1,0)	
L1D -293>	(202,5)	(293,1)	(8,1)	(1,69)	(292,47)	(4,13)	(252,14)	(216,14)	(-36,1)	(-46,1)	(-1,2)	(109,1)	(1,0)	(1,0)	(1,0)	(1,0)	
L1D -292>	(202,3)	(3,1)	(294,12)	(1,40)	(0,4)	(2,2)	(290,1)	(4,2)	(8,1)	(144,1)	(292,52)	(212,1)	(1,0)	(1,0)	(1,0)	(1,0)	
L1D -291>	(2,1)	(-1,3)	(1,3)	(1,0)	(1,0)	(1,0)	(1,0)	(1,0)	(1,0)	(1,0)	(1,0)	(1,0)	(1,0)	(1,0)	(1,0)	(1,0)	
L1D -290>	(294,3)	(1,5)	(2,3)	(284,1)	(340,1)	(345,1)	(176,1)	(48,1)	(-1,1)	(1,0)	(1,0)	(1,0)	(1,0)	(1,0)	(1,0)	(1,0)	
L1D -289>	(202,4)	(1,58)	(-202,1)	(396,23)	(132,8)	(290,1)	(108,1)	(1,0)	(1,0)	(1,0)	(1,0)	(1,0)	(1,0)	(1,0)	(1,0)	(1,0)	
L1D -288>	(290,5)	(202,1)	(2,2)	(1,16)	(0,4)	(288,1)	(4,7)	(132,5)	(231,1)	(-92,1)	(94,1)	(310,1)	(1,0)	(1,0)	(1,0)	(1,0)	
L1D -287>	(487,1)	(1,6)	(2,2)	(-202,1)	(-1,1)	(1,0)	(1,0)	(1,0)	(1,0)	(1,0)	(1,0)	(1,0)	(1,0)	(1,0)	(1,0)	(1,0)	
L1D -286>	(288,1)	(290,4)	(2,5)	(1,5)	(202,1)	(219,1)	(115,1)	(287,1)	(95,1)	(-1,1)	(36,1)	(1,0)	(1,0)	(1,0)	(1,0)	(1,0)	
L1D -285>	(202,5)	(487,1)	(285,6)	(1,4)	(1,0)	(1,0)	(1,0)	(1,0)	(1,0)	(1,0)	(1,0)	(1,0)	(1,0)	(1,0)	(1,0)	(1,0)	
L1D -284>	(0,13)	(286,6)	(1,6)	(202,1)	(2,1)	(284,4)	(3,2)	(4,3)	(8,1)	(285,68)	(340,1)	(418,1)	(123,1)	(45,1)	(-1,1)	(1,0)	
L1D -283>	(1,1)	(2,2)	(-202,1)	(-1,3)	(8,1)	(276,1)	(284,1)	(1,0)	(1,0)	(1,0)	(1,0)	(1,0)	(1,0)	(1,0)	(1,0)	(1,0)	
L1D -282>	(202,2)	(286,2)	(0,2)	(1,3)	(2,6)	(-202,1)	(-126,1)	(185,1)	(-1,1)	(1,0)	(1,0)	(1,0)	(1,0)	(1,0)	(1,0)	(1,0)	
L1D -281>	(202,3)	(1,7)	(-1,2)	(79,1)	(0,1)	(1,0)	(1,0)	(1,0)	(1,0)	(1,0)	(1,0)	(1,0)	(1,0)	(1,0)	(1,0)	(1,0)	
L1D -280>	(2,3)	(0,3)	(202,1)	(3,3)	(282,7)	(1,3)	(4,2)	(8,1)	(75,1)	(-1,2)	(240,1)	(148,1)	(1,0)	(1,0)	(1,0)	(1,0)	
L1D -279>	(202,1)	(1,15)	(182,1)	(2,1)	(74,9)	(174,1)	(95,1)	(-59,1)	(-1,1)	(1,0)	(1,0)	(1,0)	(1,0)	(1,0)	(1,0)	(1,0)	
L1D -278>	(1,28)	(282,2)	(0,1)	(202,1)	(-202,1)	(4,1)	(2,1)	(74,6)	(211,1)	(246,1)	(-12,1)	(302,1)	(1,0)	(1,0)	(1,0)	(1,0)	
L1D -277>	(202,2)	(277,1)	(2,1)	(1,64)	(276,14)	(310,26)	(304,1)	(-1,3)	(1,0)	(1,0)	(1,0)	(1,0)	(1,0)	(1,0)	(1,0)	(1,0)	
L1D -276>	(202,2)	(278,7)	(2,3)	(1,9)	(0,4)	(3,2)	(4,2)	(8,1)	(-1,1)	(296,1)	(248,4)	(255,1)	(1,0)	(1,0)	(1,0)	(1,0)	
L1D -275>	(1,51)	(2,2)	(-202,1)	(276,16)	(28,1)	(212,2)	(-1,5)	(224,1)	(186,1)	(274,1)	(1,0)	(1,0)	(1,0)	(1,0)	(1,0)	(1,0)	
L1D -274>	(202,3)	(1,5)	(0,2)	(278,2)	(2,1)	(276,2)	(141,1)	(329,1)	(1,0)	(1,0)	(1,0)	(1,0)	(1,0)	(1,0)	(1,0)	(1,0)	
L1D -273>	(202,5)	(1,17)	(2,1)	(273,1)	(326,5)	(327,1)	(-1,1)	(1,0)	(1,0)	(1,0)	(1,0)	(1,0)	(1,0)	(1,0)	(1,0)	(1,0)	
L1D -272>	(253,0)	(0,1)	(474,0)	(3,0)	(274,0)	(1,0)	(4,0)	(272,124)	(1,0)	(1,0)	(1,0)	(1,0)	(1,0)	(1,0)	(1,0)	(1,0)	
L1D -271>	(318,1)	(2,2)	(190,1)	(-202,3)	(210,3)	(1,18)	(-1,1)	(271,84)	(1,0)	(1,0)	(1,0)	(1,0)	(1,0)	(1,0)	(1,0)	(1,0)	
L1D -270>	(202,2)	(3,1)	(0,1)	(1,24)	(274,2)	(2,3)	(210,4)	(404,1)	(322,1)	(204,1)	(173,1)	(254,1)	(1,0)	(1,0)	(1,0)	(1,0)	
L1D -269>	(202,3)	(1,4)	(-1,1)	(-134,1)	(1,0)	(1,0)	(1,0)	(1,0)	(1,0)	(1,0)	(1,0)	(1,0)	(1,0)	(1,0)	(1,0)	(1,0)	
L1D -268>	(202,2)	(270,3)	(468,1)	(1,4)	(0,5)	(2,1)	(8,2)	(4,2)	(-1,5)	(269,1)	(-131,1)	(320,1)	(156,1)	(300,1)	(1,0)	(1,0)	
L1D -267>	(1,40)	(-202,1)	(2,1)	(6,1)	(262,13)	(228,4)	(263,1)	(276,7)	(24,1)	(1,0)	(1,0)	(1,0)	(1,0)	(1,0)	(1,0)	(1,0)	
L1D -266>	(2,2)	(270,2)	(-202,3)	(3,2)	(267,73)	(231,55)	(1,20)	(232,3)	(228,1)	(-49,1)	(179,1)	(294,1)	(1,0)	(1,0)	(1,0)	(1,0)	
L1D -265>	(202,4)	(1,2)	(4,1)	(-1,2)	(1,0)	(1,0)	(1,0)	(1,0)	(1,0)	(1,0)	(1,0)	(1,0)	(1,0)	(1,0)	(1,0)	(1,0)	
L1D -264>	(202,1)	(266,4)	(2,3)	(0,5)	(466,1)	(1,4)	(4,4)	(8,1)	(-12,1)	(-1,1)	(106,1)	(131,1)	(191,1)	(1,0)	(1,0)	(1,0)	
L1D -263>	(202,1)	(190,1)	(2,1)	(-202,1)	(1,49)	(502,2)	(263,1)	(0,1)	(1,0)	(1,0)	(1,0)	(1,0)	(1,0)	(1,0)	(1,0)	(1,0)	
L1D -262>	(202,1)	(1,9)	(266,2)	(2,4)	(-202,1)	(0,3)	(260,1)	(-105,1)	(3,1)	(262,4)	(347,1)	(42,1)	(6,1)	(-1,1)	(1,0)	(1,0)	
L1D -261>	(202,1)	(1,13)	(8,1)	(260,3)	(-1,2)	(1,0)	(1,0)	(1,0)	(1,0)	(1,0)	(1,0)	(1,0)	(1,0)	(1,0)	(1,0)	(1,0)	
L1D -260>	(280,1)	(202,1)	(262,6)	(2,2)	(0,4)	(1,5)	(3,1)	(4,3)	(8,1)	(403,1)	(223,1)	(230,1)	(114,1)	(182,1)	(1,0)	(1,0)	
L1D -259>	(2,1)	(1,38)	(-202,8)	(150,1)	(-1,2)	(105,1)	(1,0)	(1,0)	(1,0)	(1,0)	(1,0)	(1,0)	(1,0)	(1,0)	(1,0)	(1,0)	
L1D -258>	(202,1)	(262,2)	(1,3)	(2,2)	(-202,1)	(260,1)	(6,1)	(0,3)	(181,1)	(-1,1)	(259,1)	(20,1)	(-86,1)	(-87,1)	(86,1)	(1,0)	
L1D -257>	(202,2)	(1,6)	(-1,1)	(255,1)	(1,0)	(1,0)	(1,0)	(1,0)	(1,0)	(1,0)	(1,0)	(1,0)	(1,0)	(1,0)	(1,0)	(1,0)	
L1D -256>	(202,1)	(458,1)	(258,4)	(1,5)	(-202,1)	(4,28)	(8,20)	(9,4)	(436,1)	(-176,1)	(148,1)	(-1,1)	(-3,4)	(1,0)	(1,0)	(1,0)	
L1D -255>	(1,6)	(-202,2)	(-1,2)	(1,0)	(1,0)	(1,0)	(1,0)	(1,0)	(1,0)	(1,0)	(1,0)	(1,0)	(1,0)	(1,0)	(1,0)	(1,0)	
L1D -254>	(202,3)	(2,3)	(0,2)	(258,51)	(1,7)	(92,1)	(3,1)	(255,44)	(33,31)	(34,3)	(253,1)	(-33,1)	(-83,1)	(-1,1)	(365,1)	(-12,1)	
L1D -253>	(202,4)	(1,3)	(2,1)	(253,1)	(-1,3)	(144,17)	(164,1)	(256,1)	(1,0)	(1,0)	(1,0)	(1,0)	(1,0)	(1,0)	(1,0)	(1,0)	
L1D -252>	(202,1)	(254,3)	(1,2)	(0,1)	(364,1)	(84,1)	(1,0)	(1,0)	(1,0)	(1,0)	(1,0)	(1,0)	(1,0)	(1,0)	(1,0)	(1,0)	
L1D -251>	(202,1)	(-202,5)	(1,6)	(212,2)	(-1,2)	(247,1)	(214,1)	(138,1)	(1,0)	(1,0)	(1,0)	(1,0)	(1,0)	(1,0)	(1,0)	(1,0)	
L1D -250>	(246,1)	(202,3)	(0,2)	(254,4)	(252,1)	(3,1)	(2,1)	(187,1)	(368,1)	(176,1)	(393,1)	(1,1)	(126,1)	(251,1)	(1,0)	(1,0)	
L1D -249>	(202,1)	(1,38)	(2,1)	(-202,1)	(168,24)	(26,19)	(8,1)	(170,9)	(-1,1)	(245,1)	(249,1)	(1,0)	(1,0)	(1,0)	(1,0)	(1,0)	
L1D -248>	(0,3)	(244,1)	(1,46)	(250,2)	(202,1)	(-105,1)	(168,40)	(256,2)	(-1,1)	(170,26)	(-36,1)	(308,1)	(247,1)	(206,1)	(318,1)	(241,1)	
L1D -247>	(2,4)	(-202,2)	(1,42)	(42,4)	(58,1)	(-1,1)	(243,2)	(247,3)	(102,1)	(1,0)	(1,0)	(1,0)	(1,0)	(1,0)	(1,0)	(1,0)	
L1D -246>	(301,1)	(1,22)	(2,2)	(0,2)	(215,5)	(42,5)	(299,1)	(337,1)	(-58,1)	(245,7)	(120,1)	(96,1)	(383,1)	(-10,4)	(246,1)	(-198,1)	
L1D -245>	(0,1)	(6,1)	(202,2)	(1,7)	(8,1)	(236,1)	(168,2)	(241,1)	(99,1)	(-1,1)	(1,0)	(1,0)	(1,0)	(1,0)	(1,0)	(1,0)	
L1D -244>	(240,1)	(246,4)	(2,1)	(4,2)	(8,3)	(214,1)	(243,4)	(54,1)	(1,1)	(437,1)	(186,1)	(245,1)	(1,0)	(1,0)	(1,0)	(1,0)	
L1D -243>	(2,2)	(-202,6)	(1,19)	(-105,1)	(76,1)	(-116,13)	(240,1)	(422,4)	(-1,2)	(239,2)	(6,1)	(1,0)	(1,0)	(1,0)	(1,0)	(1,0)	
L1D -242>	(202,1)	(1,23)	(246,1)	(0,2)	(241,2)	(2,1)	(-116,1)	(-2,1)	(182,1)	(238,4)	(1,0)	(1,0)	(1,0)	(1,0)	(1,0)	(1,0)	
L1D -241>	(4,1)	(202,1)	(-202,1)	(1,50)	(240,1)	(-262,3)	(-1,2)	(237,2)	(241,4)	(1,0)	(1,0)	(1,0)	(1,0)	(1,0)	(1,0)	(1,0)	
L1D -240>	(239,3)	(333,1)	(0,3)	(242,1)	(-2,1)	(2,1)	(1,29)	(8,1)	(4,5)	(241,43)	(289,30)	(13,1)	(49,1)	(48,3)	(-124,1)	(240,1)	
L1D -239>	(239,1)	(0,1)	(246,1)	(318,1)	(2,2)	(-202,2)	(1,5)	(106,1)	(-106,1)	(4,1)	(219,3)	(235,1)	(-1,2)	(1,0)	(1,0)	(1,0)	
L1D -238>	(237,3)	(-202,2)	(1,2)	(242,1)	(2,1)	(0,1)	(54,1)	(285,1)	(1,0)	(1,0)	(1,0)	(1,0)	(1,0)	(1,0)	(1,0)	(1,0)	
L1D -237>	(202,1)	(-202,1)	(1,6)	(215,5)	(-30,1)	(236,1)	(0,4)	(-1,1)	(1,0)	(1,0)	(1,0)	(1,0)	(1,0)	(1,0)	(1,0)	(1,0)	
L1D -236>	(0,2)	(238,2)	(1,19)	(4,2)	(8,2)	(210,1)	(237,16)	(-31,6)	(287,1)	(236,1)	(289,1)	(151,1)	(235,1)	(-28,1)	(1,0)	(1,0)	
L1D -235>	(318,1)	(2,3)	(-202,4)	(5,1)	(1,1)	(-1,2)	(235,1)	(1,0)	(1,0)	(1,0)	(1,0)	(1,0)	(1,0)	(1,0)	(1,0)	(1,0)	
L1D -234>	(233,1)	(202,2)	(-202,2)	(2,1)	(238,1)	(1,1)	(-1,1)	(0,1)	(246,1)	(1,0)	(1,0)	(1,0)	(1,0)	(1,0)	(1,0)	(1,0)	
L1D -233>	(202,1)	(-202,1)	(1,31)	(-105,1)	(106,1)	(192,1)	(255,1)	(3,1)	(232,2)	(-20,1)	(-1,1)	(1,0)	(1,0)	(1,0)	(1,0)	(1,0)	
L1D -232>	(202,1)	(-202,1)	(2,2)	(234,1)	(0,1)	(106,1)	(8,2)	(192,1)	(1,2)	(-1,2)	(368,1)	(132,1)	(212,1)	(-20,1)	(61,1)	(1,0)	
L1D -231>	(2,2)	(-202,6)	(1,46)	(-1,4)	(88,1)	(227,1)	(1,0)	(1,0)	(1,0)	(1,0)	(1,0)	(1,0)	(1,0)	(1,0)	(1,0)	(1,0)	
L1D -230>	(202,4)	(-202,3)	(0,1)	(1,5)	(3,1)	(234,1)	(2,1)	(213,1)	(411,1)	(243,1)	(1,0)	(1,0)	(1,0)	(1,0)	(1,0)	(1,0)	
L1D -229>	(202,2)	(1,4)	(6,18)	(-1,2)	(1,0)	(1,0)	(1,0)	(1,0)	(1,0)	(1,0)	(1,0)	(1,0)	(1,0)	(1,0)	(1,0)	(1,0)	
L1D -228>	(227,5)	(1,2)	(230,2)	(8,2)	(4,1)	(233,1)	(0,2)	(228,1)	(378,1)	(262,1)	(158,1)	(402,1)	(1,0)	(1,0)	(1,0)	(1,0)	
L1D -227>	(-202,4)	(2,1)	(427,1)	(37,1)	(1,6)	(-1,2)	(1,0)	(1,0)	(1,0)	(1,0)	(1,0)	(1,0)	(1,0)	(1,0)	(1,0)	(1,0)	
L1D -226>	(2,3)	(-202,2)	(1,2)	(226,2)	(256,1)	(-12,1)	(-35,1)	(1,0)	(1,0)	(1,0)	(1,0)	(1,0)	(1,0)	(1,0)	(1,0)	(1,0)	
L1D -225>	(202,1)	(2,1)	(1,4)	(0,1)	(109,1)	(-1,3)	(170,1)	(1,0)	(1,0)	(1,0)	(1,0)	(1,0)	(1,0)	(1,0)	(1,0)	(1,0)	
L1D -224>	(0,1)	(226,1)	(4,1)	(8,2)	(1,2)	(115,1)	(-100,1)	(258,1)	(268,1)	(173,1)	(110,1)	(78,1)	(-1,1)	(224,1)	(1,0)	(1,0)	
L1D -223>	(-202,3)	(1,75)	(3,14)	(-4,1)	(34,20)	(272,1)	(-49,1)	(207,11)	(-78,1)	(400,6)	(-112,4)	(-222,2)	(-1,1)	(8,1)	(1,0)	(1,0)	
L1D -222>	(202,1)	(0,2)	(1,11)	(-1,5)	(-5,2)	(3,1)	(34,1)	(264,2)	(212,1)	(-222,1)	(1,0)	(1,0)	(1,0)	(1,0)	(1,0)	(1,0)	
L1D -221>	(1,21)	(2,2)	(210,1)	(3,9)	(-5,2)	(-4,1)	(170,11)	(-1,2)	(1,0)	(1,0)	(1,0)	(1,0)	(1,0)	(1,0)	(1,0)	(1,0)	
L1D -220>	(-5,1)	(187,1)	(-2,3)	(2,1)	(180,3)	(-1,77)	(3,2)	(32,3)	(-4,1)	(70,1)	(0,1)	(116,1)	(1,1)	(10,1)	(1,0)	(1,0)	
L1D -219>	(2,3)	(-202,3)	(0,1)	(3,9)	(24,10)	(1,84)	(25,4)	(30,20)	(4,1)	(218,1)	(5,1)	(207,4)	(-173,1)	(-1,1)	(61,2)	(1,0)	
L1D -218>	(146,1)	(-202,3)	(2,2)	(0,2)	(8,1)	(-1,3)	(23,3)	(3,1)	(1,2)	(24,2)	(-76,1)	(415,1)	(206,1)	(114,1)	(166,1)	(145,2)	
L1D -217>	(217,3)	(4,3)	(3,7)	(24,3)	(25,1)	(1,17)	(248,8)	(23,3)	(-1,2)	(0,1)	(62,1)	(232,1)	(168,1)	(114,1)	(1,0)	(1,0)	
L1D -216>	(2,7)	(1,14)	(4,4)	(3,5)	(24,12)	(25,7)	(23,2)	(50,1)	(-10,1)	(172,1)	(-8,1)	(-1,1)	(1,0)	(1,0)	(1,0)	(1,0)	
L1D -215>	(189,1)	(2,0)	(23,0)	(212,96)	(-1,1)	(1,1)	(1,0)	(1,0)	(1,0)	(1,0)	(1,0)	(1,0)	(1,0)	(1,0)	(1,0)	(1,0)	
L1D -214>	(1,3)	(202,2)	(68,1)	(4,2)	(2,1)	(212,3)	(106,1)	(39,5)	(244,1)	(32,1)	(-12,1)	(0,1)	(215,1)	(51,1)	(300,1)	(427,1)	
L1D -213>	(1,6)	(213,1)	(350,2)	(-38,1)	(-1,1)	(1,0)	(1,0)	(1,0)	(1,0)	(1,0)	(1,0)	(1,0)	(1,0)	(1,0)	(1,0)	(1,0)	
L1D -212>	(110,12)	(345,1)	(312,1)	(-106,1)	(212,87)	(-110,2)	(0,4)	(238,1)	(213,2)	(-3,19)	(1,29)	(-114,1)	(-122,2)	(-118,1)	(48,1)	(1,0)	
L1D -211>	(-1,2)	(-202,0)	(3,0)	(1,2)	(318,0)	(106,0)	(-211,0)	(212,71)	(1,0)	(1,0)	(1,0)	(1,0)	(1,0)	(1,0)	(1,0)	(1,0)	
L1D -210>	(48,1)	(180,1)	(250,1)	(1,1)	(212,98)	(22,1)	(1,0)	(1,0)	(1,0)	(1,0)	(1,0)	(1,0)	(1,0)	(1,0)	(1,0)	(1,0)	
L1D -209>	(-9,1)	(318,1)	(316,1)	(1,17)	(-22,1)	(212,89)	(400,10)	(204,1)	(-1,1)	(72,1)	(1,0)	(1,0)	(1,0)	(1,0)	(1,0)	(1,0)	
L1D -208>	(0,1)	(2,3)	(209,1)	(1,4)	(4,1)	(106,4)	(8,2)	(318,4)	(-78,1)	(212,12)	(102,1)	(-62,1)	(-114,1)	(192,1)	(1,0)	(1,0)	
L1D -207>	(6,1)	(-202,4)	(2,2)	(0,2)	(1,5)	(-1,5)	(-186,1)	(1,0)	(1,0)	(1,0)	(1,0)	(1,0)	(1,0)	(1,0)	(1,0)	(1,0)	
L1D -206>	(2,1)	(-202,1)	(213,1)	(314,1)	(207,2)	(336,1)	(1,0)	(1,0)	(1,0)	(1,0)	(1,0)	(1,0)	(1,0)	(1,0)	(1,0)	(1,0)	
L1D -205>	(318,1)	(209,1)	(317,2)	(2,2)	(1,7)	(138,7)	(-1,1)	(1,0)	(1,0)	(1,0)	(1,0)	(1,0)	(1,0)	(1,0)	(1,0)	(1,0)	
L1D -204>	(4,95)	(205,2)	(-2,1)	(370,1)	(406,1)	(-184,2)	(382,1)	(358,1)	(302,1)	(390,1)	(374,1)	(334,1)	(378,2)	(326,1)	(322,1)	(310,1)	
L1D -203>	(2,83)	(-202,12)	(318,1)	(200,37)	(1,63)	(3,72)	(-56,1)	(-200,2)	(-1,3)	(1,0)	(1,0)	(1,0)	(1,0)	(1,0)	(1,0)	(1,0)	
L1D -202>	(-1,3)	(204,7)	(2,88)	(218,1)	(203,2)	(-56,1)	(-200,5)	(-79,1)	(-78,1)	(129,1)	(61,1)	(4,1)	(324,0)	(1,30)	(3,16)	(200,5)	
L1D -201>	(202,1)	(318,1)	(-1,2)	(1,15)	(200,1)	(3,19)	(2,8)	(-57,1)	(90,1)	(64,1)	(-55,2)	(-200,1)	(-13,10)	(1,0)	(1,0)	(1,0)	
L1D -200>	(2,54)	(202,70)	(1,61)	(3,50)	(4,1)	(200,1)	(400,1)	(-1,1)	(-200,19)	(203,5)	(190,1)	(-10,1)	(1,0)	(1,0)	(1,0)	(1,0)	
L1D -199>	(-202,3)	(4,1)	(200,61)	(1,73)	(2,56)	(3,29)	(-4,13)	(-57,1)	(-56,1)	(18,1)	(-3,1)	(-201,5)	(-1,1)	(199,1)	(1,0)	(1,0)	
L1D -198>	(202,3)	(318,3)	(2,20)	(-202,2)	(200,94)	(3,19)	(199,9)	(398,27)	(201,5)	(1,25)	(295,1)	(-4,1)	(-1,3)	(-5,2)	(427,1)	(432,1)	
L1D -197>	(318,1)	(198,20)	(1,12)	(200,38)	(397,5)	(199,8)	(3,7)	(2,3)	(-5,4)	(-4,7)	(-1,6)	(-42,1)	(1,0)	(1,0)	(1,0)	(1,0)	
L1D -196>	(4,18)	(8,10)	(2,15)	(200,105)	(1,27)	(3,7)	(-3,5)	(-4,15)	(-5,1)	(74,1)	(199,5)	(31,1)	(-1,1)	(46,1)	(0,1)	(-64,1)	
L1D -195>	(-202,10)	(318,1)	(200,10)	(4,19)	(8,5)	(1,5)	(-1,5)	(-5,3)	(2,4)	(26,1)	(1,0)	(1,0)	(1,0)	(1,0)	(1,0)	(1,0)	
L1D -194>	(0,1)	(-202,1)	(318,1)	(4,2)	(7,1)	(1,1)	(3,4)	(1,0)	(1,0)	(1,0)	(1,0)	(1,0)	(1,0)	(1,0)	(1,0)	(1,0)	
L1D -193>	(2,2)	(220,1)	(4,1)	(1,23)	(90,11)	(192,6)	(-1,7)	(212,1)	(191,4)	(1,0)	(1,0)	(1,0)	(1,0)	(1,0)	(1,0)	(1,0)	
L1D -192>	(261,1)	(192,0)	(322,0)	(-202,0)	(280,0)	(4,0)	(200,0)	(8,0)	(1,0)	(-48,93)	(260,0)	(1,0)	(1,0)	(1,0)	(1,0)	(1,0)	
L1D -191>	(-202,4)	(244,1)	(272,1)	(2,1)	(4,5)	(36,1)	(8,5)	(24,1)	(1,15)	(76,17)	(190,9)	(206,1)	(-1,2)	(1,0)	(1,0)	(1,0)	
L1D -190>	(189,1)	(228,1)	(236,1)	(252,1)	(-202,1)	(2,1)	(4,3)	(1,5)	(76,7)	(190,4)	(20,1)	(-1,1)	(204,1)	(36,1)	(214,1)	(387,1)	
L1D -189>	(2,1)	(5,1)	(4,1)	(-1,2)	(1,1)	(1,0)	(1,0)	(1,0)	(1,0)	(1,0)	(1,0)	(1,0)	(1,0)	(1,0)	(1,0)	(1,0)	
L1D -188>	(2,3)	(190,3)	(108,1)	(0,2)	(-44,1)	(-18,3)	(239,4)	(1,0)	(1,0)	(1,0)	(1,0)	(1,0)	(1,0)	(1,0)	(1,0)	(1,0)	
L1D -187>	(-202,9)	(2,2)	(-1,4)	(1,3)	(-114,1)	(188,1)	(1,0)	(1,0)	(1,0)	(1,0)	(1,0)	(1,0)	(1,0)	(1,0)	(1,0)	(1,0)	
L1D -186>	(2,7)	(4,1)	(-202,1)	(18,1)	(0,1)	(86,1)	(54,1)	(251,1)	(256,1)	(188,1)	(1,5)	(-146,1)	(-134,1)	(1,0)	(1,0)	(1,0)	
L1D -185>	(1,8)	(16,2)	(-1,5)	(1,0)	(1,0)	(1,0)	(1,0)	(1,0)	(1,0)	(1,0)	(1,0)	(1,0)	(1,0)	(1,0)	(1,0)	(1,0)	
L1D -184>	(3,4)	(1,11)	(4,8)	(2,8)	(-202,3)	(5,1)	(282,1)	(182,1)	(185,1)	(333,1)	(164,1)	(246,1)	(60,1)	(-208,1)	(1,0)	(1,0)	
L1D -183>	(-202,2)	(-1,2)	(1,124)	(2,3)	(182,17)	(252,1)	(-68,5)	(1,0)	(1,0)	(1,0)	(1,0)	(1,0)	(1,0)	(1,0)	(1,0)	(1,0)	
L1D -182>	(-202,6)	(4,1)	(1,38)	(182,5)	(-68,4)	(-166,1)	(-65,4)	(350,1)	(1,0)	(1,0)	(1,0)	(1,0)	(1,0)	(1,0)	(1,0)	(1,0)	
L1D -181>	(2,1)	(-202,1)	(8,1)	(18,1)	(1,8)	(259,1)	(-1,4)	(180,1)	(-10,6)	(4,1)	(16,4)	(1,0)	(1,0)	(1,0)	(1,0)	(1,0)	
L1D -180>	(2,1)	(200,1)	(244,1)	(210,1)	(64,1)	(1,2)	(155,1)	(1,0)	(1,0)	(1,0)	(1,0)	(1,0)	(1,0)	(1,0)	(1,0)	(1,0)	
L1D -179>	(0,1)	(-202,8)	(2,3)	(-55,3)	(-56,5)	(3,6)	(1,4)	(-1,3)	(-40,1)	(1,0)	(1,0)	(1,0)	(1,0)	(1,0)	(1,0)	(1,0)	
L1D -178>	(2,5)	(-202,1)	(-1,7)	(3,4)	(-57,2)	(1,2)	(-56,3)	(369,1)	(313,1)	(230,1)	(-50,1)	(418,1)	(200,1)	(1,0)	(1,0)	(1,0)	
L1D -177>	(-202,1)	(2,2)	(-56,11)	(1,41)	(-57,2)	(-1,5)	(332,26)	(170,1)	(-32,3)	(176,6)	(-55,1)	(-34,18)	(288,1)	(0,1)	(1,0)	(1,0)	
L1D -176>	(-202,4)	(-15,9)	(-55,6)	(-56,12)	(3,4)	(2,4)	(1,30)	(-57,2)	(332,41)	(270,1)	(176,3)	(-32,6)	(138,1)	(-94,1)	(22,1)	(-1,1)	
L1D -175>	(-202,10)	(4,2)	(8,1)	(1,6)	(-57,5)	(2,5)	(-1,4)	(19,4)	(1,0)	(1,0)	(1,0)	(1,0)	(1,0)	(1,0)	(1,0)	(1,0)	
L1D -174>	(-202,6)	(4,1)	(175,2)	(147,1)	(148,1)	(263,1)	(145,2)	(174,4)	(176,3)	(6,3)	(100,1)	(-26,1)	(224,1)	(1,0)	(1,0)	(1,0)	
L1D -173>	(173,5)	(-1,8)	(-2,1)	(1,7)	(172,1)	(169,4)	(1,0)	(1,0)	(1,0)	(1,0)	(1,0)	(1,0)	(1,0)	(1,0)	(1,0)	(1,0)	
L1D -172>	(2,8)	(130,1)	(20,1)	(1,2)	(172,1)	(264,1)	(343,1)	(165,1)	(176,17)	(4,4)	(173,1)	(0,2)	(-87,3)	(259,2)	(-86,1)	(1,0)	
L1D -171>	(-202,4)	(2,3)	(-4,16)	(1,76)	(-30,6)	(170,5)	(159,1)	(-1,9)	(-294,1)	(106,1)	(1,0)	(1,0)	(1,0)	(1,0)	(1,0)	(1,0)	
L1D -170>	(-1,2)	(-202,4)	(2,5)	(1,7)	(-14,1)	(170,1)	(128,1)	(103,1)	(94,1)	(169,41)	(0,1)	(173,1)	(4,2)	(1,0)	(1,0)	(1,0)	
L1D -169>	(-202,1)	(-1,6)	(329,1)	(1,2)	(170,2)	(169,1)	(1,0)	(1,0)	(1,0)	(1,0)	(1,0)	(1,0)	(1,0)	(1,0)	(1,0)	(1,0)	
L1D -168>	(-202,4)	(8,3)	(4,1)	(18,1)	(2,2)	(188,1)	(42,1)	(53,1)	(1,4)	(-120,1)	(170,1)	(176,6)	(1,0)	(1,0)	(1,0)	(1,0)	
L1D -167>	(-202,9)	(102,1)	(180,3)	(1,58)	(122,6)	(2,1)	(168,1)	(-1,5)	(44,1)	(169,1)	(1,0)	(1,0)	(1,0)	(1,0)	(1,0)	(1,0)	
L1D -166>	(-202,3)	(1,21)	(122,5)	(167,1)	(102,1)	(252,1)	(-1,2)	(168,1)	(1,0)	(1,0)	(1,0)	(1,0)	(1,0)	(1,0)	(1,0)	(1,0)	
L1D -165>	(2,1)	(1,34)	(164,4)	(180,1)	(0,1)	(-256,1)	(-1,3)	(186,1)	(167,1)	(1,0)	(1,0)	(1,0)	(1,0)	(1,0)	(1,0)	(1,0)	
L1D -164>	(2,4)	(200,1)	(164,11)	(1,5)	(100,1)	(14,1)	(362,1)	(298,1)	(146,3)	(56,1)	(-20,1)	(160,1)	(221,1)	(1,0)	(1,0)	(1,0)	
L1D -163>	(2,1)	(-202,8)	(4,2)	(1,3)	(172,1)	(144,1)	(1,0)	(1,0)	(1,0)	(1,0)	(1,0)	(1,0)	(1,0)	(1,0)	(1,0)	(1,0)	
L1D -162>	(-202,3)	(2,4)	(159,1)	(-186,1)	(288,1)	(31,1)	(60,1)	(1,1)	(192,1)	(1,0)	(1,0)	(1,0)	(1,0)	(1,0)	(1,0)	(1,0)	
L1D -161>	(1,49)	(160,3)	(-1,2)	(1,0)	(1,0)	(1,0)	(1,0)	(1,0)	(1,0)	(1,0)	(1,0)	(1,0)	(1,0)	(1,0)	(1,0)	(1,0)	
L1D -160>	(-202,3)	(1,3)	(-1,2)	(-22,17)	(0,1)	(241,1)	(113,1)	(-55,1)	(206,1)	(52,1)	(1,0)	(1,0)	(1,0)	(1,0)	(1,0)	(1,0)	
L1D -159>	(-202,12)	(2,1)	(4,1)	(-1,5)	(1,5)	(148,1)	(-337,1)	(0,1)	(160,1)	(40,1)	(1,0)	(1,0)	(1,0)	(1,0)	(1,0)	(1,0)	
L1D -158>	(-202,7)	(2,1)	(-1,3)	(60,2)	(1,3)	(161,1)	(208,1)	(-272,1)	(-8,2)	(140,3)	(20,3)	(112,1)	(1,0)	(1,0)	(1,0)	(1,0)	
L1D -157>	(157,1)	(138,10)	(144,12)	(1,57)	(156,6)	(-176,7)	(153,3)	(82,1)	(1,0)	(1,0)	(1,0)	(1,0)	(1,0)	(1,0)	(1,0)	(1,0)	
L1D -156>	(2,1)	(138,7)	(1,31)	(144,5)	(-176,16)	(156,1)	(408,1)	(208,1)	(-192,1)	(114,1)	(303,1)	(1,0)	(1,0)	(1,0)	(1,0)	(1,0)	
L1D -155>	(-202,4)	(2,1)	(8,4)	(1,4)	(154,1)	(-1,2)	(143,3)	(1,0)	(1,0)	(1,0)	(1,0)	(1,0)	(1,0)	(1,0)	(1,0)	(1,0)	
L1D -154>	(-202,4)	(2,2)	(8,1)	(1,4)	(-1,1)	(112,1)	(203,4)	(156,1)	(-42,1)	(-78,1)	(206,1)	(-22,1)	(1,0)	(1,0)	(1,0)	(1,0)	
L1D -153>	(-202,2)	(1,19)	(-40,12)	(153,3)	(149,3)	(-1,4)	(155,2)	(1,0)	(1,0)	(1,0)	(1,0)	(1,0)	(1,0)	(1,0)	(1,0)	(1,0)	
L1D -152>	(-202,1)	(155,1)	(0,1)	(419,1)	(-1,1)	(154,1)	(1,1)	(182,1)	(1,0)	(1,0)	(1,0)	(1,0)	(1,0)	(1,0)	(1,0)	(1,0)	
L1D -151>	(-202,10)	(2,1)	(4,1)	(140,1)	(1,6)	(-200,1)	(-1,3)	(153,1)	(1,0)	(1,0)	(1,0)	(1,0)	(1,0)	(1,0)	(1,0)	(1,0)	
L1D -150>	(149,15)	(-202,6)	(-42,1)	(266,1)	(343,1)	(-1,2)	(192,1)	(1,2)	(415,1)	(152,2)	(151,2)	(237,1)	(-8,1)	(1,0)	(1,0)	(1,0)	
L1D -149>	(150,1)	(2,2)	(399,4)	(136,1)	(-1,2)	(1,1)	(151,1)	(242,1)	(1,0)	(1,0)	(1,0)	(1,0)	(1,0)	(1,0)	(1,0)	(1,0)	
L1D -148>	(2,3)	(1,4)	(334,1)	(-110,1)	(-156,1)	(150,1)	(1,0)	(1,0)	(1,0)	(1,0)	(1,0)	(1,0)	(1,0)	(1,0)	(1,0)	(1,0)	
L1D -147>	(-202,11)	(2,2)	(1,23)	(326,10)	(-1,3)	(52,1)	(140,1)	(106,4)	(94,1)	(149,1)	(4,1)	(120,2)	(1,0)	(1,0)	(1,0)	(1,0)	
L1D -146>	(145,1)	(2,1)	(-202,5)	(1,4)	(108,1)	(120,2)	(0,1)	(148,1)	(396,1)	(147,1)	(281,1)	(1,0)	(1,0)	(1,0)	(1,0)	(1,0)	
L1D -145>	(-1,2)	(1,1)	(198,1)	(1,0)	(1,0)	(1,0)	(1,0)	(1,0)	(1,0)	(1,0)	(1,0)	(1,0)	(1,0)	(1,0)	(1,0)	(1,0)	
L1D -144>	(-222,1)	(0,1)	(48,78)	(150,0)	(1,0)	(1,0)	(1,0)	(1,0)	(1,0)	(1,0)	(1,0)	(1,0)	(1,0)	(1,0)	(1,0)	(1,0)	
L1D -143>	(-6,1)	(-202,7)	(1,16)	(78,10)	(131,36)	(-1,2)	(166,1)	(174,1)	(191,4)	(98,1)	(150,1)	(1,0)	(1,0)	(1,0)	(1,0)	(1,0)	
L1D -142>	(-202,4)	(2,1)	(1,27)	(78,4)	(140,1)	(221,1)	(392,1)	(152,1)	(6,1)	(112,4)	(-248,1)	(1,0)	(1,0)	(1,0)	(1,0)	(1,0)	
L1D -141>	(-202,2)	(1,14)	(-1,5)	(0,1)	(166,1)	(1,0)	(1,0)	(1,0)	(1,0)	(1,0)	(1,0)	(1,0)	(1,0)	(1,0)	(1,0)	(1,0)	
L1D -140>	(-202,1)	(2,2)	(127,10)	(1,23)	(240,3)	(140,1)	(275,1)	(120,1)	(46,1)	(5,1)	(71,1)	(-1,2)	(0,2)	(36,1)	(158,3)	(1,0)	
L1D -139>	(-202,3)	(2,6)	(1,84)	(127,41)	(138,2)	(140,2)	(-68,1)	(1,0)	(1,0)	(1,0)	(1,0)	(1,0)	(1,0)	(1,0)	(1,0)	(1,0)	
L1D -138>	(2,2)	(-202,2)	(139,45)	(-108,1)	(104,1)	(80,3)	(78,1)	(1,0)	(1,0)	(1,0)	(1,0)	(1,0)	(1,0)	(1,0)	(1,0)	(1,0)	
L1D -137>	(-202,3)	(135,3)	(1,10)	(-1,5)	(136,1)	(70,1)	(1,0)	(1,0)	(1,0)	(1,0)	(1,0)	(1,0)	(1,0)	(1,0)	(1,0)	(1,0)	
L1D -136>	(-202,5)	(130,3)	(127,1)	(136,2)	(1,1)	(28,1)	(1,0)	(1,0)	(1,0)	(1,0)	(1,0)	(1,0)	(1,0)	(1,0)	(1,0)	(1,0)	
L1D -135>	(-202,8)	(58,1)	(2,2)	(1,36)	(16,30)	(136,5)	(385,1)	(134,1)	(-1,2)	(1,0)	(1,0)	(1,0)	(1,0)	(1,0)	(1,0)	(1,0)	
L1D -134>	(-202,4)	(-1,3)	(1,4)	(135,95)	(131,7)	(144,1)	(-75,1)	(127,1)	(-178,1)	(0,2)	(200,1)	(276,1)	(-284,1)	(-134,1)	(-76,1)	(64,1)	
L1D -133>	(-202,1)	(1,17)	(-124,1)	(-169,1)	(132,1)	(-1,2)	(-62,1)	(-256,3)	(1,0)	(1,0)	(1,0)	(1,0)	(1,0)	(1,0)	(1,0)	(1,0)	
L1D -132>	(-202,2)	(2,2)	(1,11)	(-1,4)	(230,1)	(142,2)	(102,1)	(-148,1)	(58,1)	(-18,1)	(0,1)	(20,1)	(54,1)	(1,0)	(1,0)	(1,0)	
L1D -131>	(-202,6)	(1,3)	(126,1)	(138,1)	(-54,1)	(-1,2)	(-2,1)	(1,0)	(1,0)	(1,0)	(1,0)	(1,0)	(1,0)	(1,0)	(1,0)	(1,0)	
L1D -130>	(124,4)	(-3,2)	(2,5)	(-202,4)	(7,1)	(127,9)	(120,2)	(126,1)	(-1,2)	(0,1)	(-60,1)	(-10,1)	(-214,1)	(248,1)	(1,1)	(46,1)	
L1D -129>	(-202,2)	(1,9)	(139,1)	(92,1)	(-1,4)	(-9,4)	(-3,1)	(1,0)	(1,0)	(1,0)	(1,0)	(1,0)	(1,0)	(1,0)	(1,0)	(1,0)	
L1D -128>	(-202,2)	(4,1)	(17,2)	(138,4)	(135,2)	(32,1)	(80,1)	(-186,1)	(-4,1)	(-1,1)	(172,1)	(-82,1)	(330,1)	(1,1)	(1,0)	(1,0)	
L1D -127>	(1,1)	(-202,3)	(2,3)	(-194,1)	(120,1)	(-1,5)	(69,1)	(0,1)	(1,0)	(1,0)	(1,0)	(1,0)	(1,0)	(1,0)	(1,0)	(1,0)	
L1D -126>	(-202,4)	(1,8)	(285,1)	(127,78)	(179,29)	(180,4)	(117,1)	(-147,15)	(-30,1)	(-243,2)	(-1,1)	(128,1)	(326,1)	(30,1)	(4,1)	(250,1)	
L1D -125>	(2,1)	(-202,1)	(-46,1)	(-279,1)	(1,2)	(64,1)	(-1,1)	(98,1)	(-3,1)	(127,1)	(1,0)	(1,0)	(1,0)	(1,0)	(1,0)	(1,0)	
L1D -124>	(124,1)	(2,2)	(20,1)	(28,1)	(126,3)	(-196,2)	(-202,1)	(1,10)	(-46,2)	(125,38)	(123,9)	(-47,14)	(-186,1)	(-1,2)	(68,1)	(-2,1)	
L1D -123>	(-202,7)	(-198,5)	(2,2)	(7,1)	(1,51)	(139,1)	(-1,3)	(0,1)	(1,0)	(1,0)	(1,0)	(1,0)	(1,0)	(1,0)	(1,0)	(1,0)	
L1D -122>	(2,4)	(-202,2)	(136,1)	(1,4)	(112,1)	(-1,1)	(0,1)	(164,1)	(285,1)	(-28,1)	(-2,1)	(124,1)	(356,1)	(-138,1)	(15,1)	(8,1)	
L1D -121>	(121,2)	(-202,1)	(4,1)	(1,9)	(-1,3)	(117,3)	(122,1)	(1,0)	(1,0)	(1,0)	(1,0)	(1,0)	(1,0)	(1,0)	(1,0)	(1,0)	
L1D -120>	(189,1)	(44,1)	(52,1)	(-196,1)	(80,1)	(-202,3)	(4,9)	(8,23)	(-52,1)	(395,1)	(136,1)	(120,1)	(1,1)	(197,1)	(76,1)	(-1,3)	
L1D -119>	(119,5)	(1,106)	(2,2)	(-202,8)	(4,1)	(135,4)	(16,18)	(176,1)	(-1,6)	(1,0)	(1,0)	(1,0)	(1,0)	(1,0)	(1,0)	(1,0)	
L1D -118>	(-202,8)	(10,11)	(118,6)	(1,29)	(16,4)	(-20,1)	(235,1)	(-1,3)	(347,1)	(-3,1)	(-284,1)	(8,1)	(81,1)	(0,1)	(82,1)	(1,0)	
L1D -117>	(118,1)	(106,1)	(1,32)	(368,7)	(-56,1)	(-1,2)	(-2,1)	(1,0)	(1,0)	(1,0)	(1,0)	(1,0)	(1,0)	(1,0)	(1,0)	(1,0)	
L1D -116>	(118,1)	(4,4)	(6,1)	(2,3)	(-1,2)	(96,1)	(8,1)	(19,1)	(1,8)	(368,7)	(122,1)	(-200,1)	(-2,1)	(24,1)	(140,1)	(357,1)	
L1D -115>	(2,2)	(-202,7)	(-1,2)	(8,1)	(20,44)	(12,11)	(-7,3)	(9,2)	(-9,1)	(1,7)	(-126,1)	(-5,1)	(115,1)	(-100,1)	(61,4)	(117,1)	
L1D -114>	(4,2)	(0,2)	(-202,5)	(2,2)	(-48,2)	(114,3)	(3,1)	(17,4)	(7,47)	(19,2)	(24,1)	(379,1)	(1,3)	(-1,2)	(-2,1)	(218,1)	
L1D -113>	(113,1)	(114,1)	(4,1)	(1,10)	(-21,1)	(-1,6)	(115,2)	(178,1)	(112,1)	(400,1)	(-115,1)	(1,0)	(1,0)	(1,0)	(1,0)	(1,0)	
L1D -112>	(4,19)	(-202,3)	(8,11)	(9,1)	(1,3)	(122,1)	(-1,1)	(28,1)	(16,1)	(154,1)	(400,1)	(402,2)	(76,1)	(415,1)	(1,0)	(1,0)	
L1D -111>	(111,7)	(-202,6)	(4,2)	(99,2)	(11,1)	(-19,93)	(-2,1)	(-5,2)	(-13,46)	(17,86)	(0,16)	(-1,6)	(18,2)	(108,2)	(1,39)	(80,1)	
L1D -110>	(-6,2)	(114,2)	(2,1)	(-202,4)	(0,2)	(-205,3)	(8,1)	(-3,1)	(1,17)	(-22,1)	(-1,3)	(-214,1)	(-32,1)	(-4,1)	(50,1)	(26,1)	
L1D -109>	(-1,5)	(110,3)	(-4,3)	(2,14)	(9,1)	(-158,1)	(-134,1)	(-248,1)	(-22,1)	(-18,1)	(-202,1)	(-170,1)	(-114,1)	(-90,1)	(-86,1)	(-58,1)	
L1D -108>	(2,3)	(4,11)	(9,2)	(10,3)	(-8,1)	(-209,1)	(109,4)	(8,2)	(0,5)	(188,1)	(16,1)	(1,3)	(411,1)	(-318,1)	(166,1)	(122,1)	
L1D -107>	(-202,5)	(2,3)	(1,8)	(-206,1)	(-209,1)	(110,1)	(4,2)	(9,48)	(-5,1)	(-1,7)	(-181,1)	(108,1)	(107,1)	(106,1)	(190,1)	(1,0)	
L1D -106>	(0,38)	(2,7)	(8,18)	(-186,1)	(-202,5)	(-211,11)	(-210,4)	(-209,2)	(-208,6)	(106,54)	(-106,17)	(318,14)	(212,2)	(-105,2)	(-212,1)	(-275,1)	
L1D -105>	(4,2)	(106,64)	(-4,2)	(-202,2)	(13,1)	(1,21)	(-130,1)	(-106,1)	(-102,1)	(3,1)	(272,1)	(258,1)	(253,1)	(241,1)	(318,4)	(-1,4)	
L1D -104>	(-202,2)	(4,19)	(-76,1)	(-8,1)	(106,5)	(105,2)	(-1,2)	(2,1)	(104,1)	(-211,5)	(78,1)	(76,1)	(0,2)	(-20,1)	(136,1)	(194,1)	
L1D -103>	(1,5)	(5,1)	(-202,9)	(2,2)	(4,7)	(94,1)	(9,3)	(102,1)	(0,3)	(184,1)	(-1,4)	(1,0)	(1,0)	(1,0)	(1,0)	(1,0)	
L1D -102>	(1,3)	(2,3)	(-202,5)	(106,1)	(0,18)	(-1,1)	(132,1)	(166,1)	(142,1)	(208,1)	(-48,1)	(-4,1)	(-2,3)	(99,1)	(138,1)	(272,1)	
L1D -101>	(-1,2)	(-2,1)	(2,18)	(-178,1)	(-146,1)	(-122,1)	(1,26)	(-70,1)	(3,3)	(-166,1)	(-142,1)	(-138,1)	(-62,1)	(-58,1)	(-6,1)	(-140,23)	
L1D -100>	(1,49)	(3,2)	(38,1)	(5,1)	(2,1)	(-171,1)	(15,16)	(9,4)	(0,1)	(4,1)	(-1,79)	(-2,3)	(-140,1)	(25,1)	(269,1)	(100,1)	
L1D -99>	(-202,6)	(99,24)	(98,2)	(4,5)	(-106,3)	(8,2)	(15,43)	(0,53)	(-1,57)	(101,2)	(-2,1)	(1,39)	(-132,10)	(-66,11)	(440,1)	(-281,1)	
L1D -98>	(98,2)	(-202,2)	(99,6)	(6,4)	(2,2)	(-1,3)	(-15,2)	(97,37)	(3,2)	(100,1)	(7,1)	(-66,1)	(1,2)	(-290,1)	(46,1)	(-140,1)	
L1D -97>	(98,2)	(99,1)	(-202,1)	(-186,1)	(3,1)	(1,8)	(-19,49)	(-10,1)	(0,3)	(306,1)	(-1,3)	(-166,1)	(-22,3)	(-3,1)	(12,2)	(13,2)	
L1D -96>	(-202,2)	(142,1)	(1,1)	(0,1)	(-20,1)	(83,4)	(49,79)	(-1,0)	(386,0)	(-252,0)	(96,0)	(98,1)	(-248,0)	(76,0)	(-2,1)	(1,0)	
L1D -95>	(-202,11)	(86,1)	(4,2)	(-8,1)	(1,33)	(-20,7)	(2,1)	(-21,1)	(138,6)	(83,112)	(-176,18)	(-1,7)	(0,1)	(97,2)	(248,1)	(1,0)	
L1D -94>	(-202,3)	(2,2)	(95,1)	(3,4)	(-21,4)	(-22,1)	(11,1)	(-14,3)	(-17,1)	(1,25)	(138,15)	(-176,23)	(156,1)	(94,1)	(70,1)	(86,1)	
L1D -93>	(-22,2)	(91,3)	(-1,4)	(2,6)	(338,1)	(-94,1)	(-70,1)	(-10,1)	(-162,1)	(3,2)	(-130,1)	(1,11)	(-102,1)	(-78,1)	(-50,1)	(-35,50)	
L1D -92>	(0,0)	(54,0)	(4,0)	(2,0)	(-27,0)	(86,1)	(-258,0)	(329,0)	(-1,0)	(92,0)	(82,86)	(24,2)	(9,0)	(93,0)	(94,0)	(1,27)	
L1D -91>	(-202,6)	(-4,1)	(4,1)	(3,19)	(11,17)	(1,107)	(-48,6)	(2,3)	(92,4)	(156,1)	(-1,3)	(100,1)	(93,2)	(1,0)	(1,0)	(1,0)	
L1D -90>	(2,2)	(11,1)	(-1,1)	(1,1)	(-10,1)	(-260,1)	(-202,1)	(92,2)	(91,71)	(156,1)	(0,1)	(87,1)	(1,0)	(1,0)	(1,0)	(1,0)	
L1D -89>	(91,1)	(-202,1)	(2,4)	(-126,1)	(-122,1)	(3,26)	(-38,1)	(-6,1)	(97,1)	(4,2)	(5,2)	(153,1)	(19,2)	(-1,6)	(-3,1)	(-118,1)	
L1D -88>	(4,1)	(1,3)	(124,1)	(-202,2)	(-3,1)	(12,4)	(149,1)	(22,1)	(-2,1)	(8,4)	(-288,1)	(2,1)	(90,16)	(94,9)	(3,2)	(86,1)	
L1D -87>	(-202,4)	(-10,1)	(78,1)	(4,2)	(8,1)	(-1,8)	(87,1)	(1,5)	(-54,1)	(0,1)	(-225,1)	(-115,1)	(2,3)	(19,4)	(173,6)	(89,3)	
L1D -86>	(-202,3)	(1,19)	(-86,8)	(2,17)	(-1,2)	(74,4)	(86,10)	(-14,17)	(0,37)	(-3,3)	(83,21)	(-87,1)	(296,1)	(90,13)	(92,3)	(88,5)	
L1D -85>	(25,2)	(2,10)	(86,1)	(1,21)	(-126,1)	(3,31)	(-98,1)	(-70,1)	(-42,1)	(-14,1)	(-110,1)	(-6,1)	(-1,7)	(0,45)	(-15,5)	(-16,2)	
L1D -84>	(2,8)	(4,10)	(94,5)	(1,11)	(74,11)	(84,6)	(71,39)	(8,3)	(-2,11)	(0,82)	(-16,12)	(-1,20)	(-17,6)	(3,11)	(91,6)	(172,1)	
L1D -83>	(-202,3)	(2,6)	(1,9)	(4,5)	(-14,50)	(90,7)	(86,1)	(-1,5)	(0,5)	(82,1)	(-110,1)	(19,36)	(18,64)	(87,3)	(70,16)	(3,1)	
L1D -82>	(199,1)	(5,1)	(-37,1)	(2,8)	(0,14)	(-239,1)	(1,6)	(4,4)	(12,1)	(11,51)	(8,1)	(489,1)	(-1,2)	(-138,1)	(34,1)	(321,1)	
L1D -81>	(-202,4)	(-4,3)	(82,4)	(70,1)	(4,1)	(2,1)	(1,2)	(-1,5)	(15,14)	(10,3)	(1,0)	(1,0)	(1,0)	(1,0)	(1,0)	(1,0)	
L1D -80>	(4,0)	(3,1)	(-104,0)	(8,0)	(200,0)	(-422,0)	(-64,92)	(22,0)	(1,0)	(1,0)	(1,0)	(1,0)	(1,0)	(1,0)	(1,0)	(1,0)	
L1D -79>	(-202,0)	(4,0)	(1,15)	(156,3)	(-78,2)	(78,1)	(28,0)	(-64,4)	(286,0)	(0,1)	(-196,0)	(-1,1)	(-148,0)	(79,105)	(2,0)	(1,0)	
L1D -78>	(-202,5)	(1,89)	(2,2)	(-1,1)	(-46,1)	(156,14)	(78,3)	(-64,2)	(286,2)	(-16,1)	(323,1)	(-58,1)	(10,1)	(211,1)	(-22,1)	(0,3)	
L1D -77>	(0,3)	(76,4)	(83,2)	(2,7)	(1,2)	(-154,1)	(-130,1)	(3,3)	(-46,1)	(-22,1)	(-202,1)	(-198,1)	(-174,1)	(-142,1)	(-114,1)	(-90,1)	
L1D -76>	(440,1)	(5,1)	(2,2)	(-119,1)	(64,1)	(76,12)	(1,9)	(32,1)	(0,5)	(77,3)	(148,1)	(255,1)	(-86,1)	(-112,1)	(8,1)	(112,1)	
L1D -75>	(-202,1)	(73,1)	(15,79)	(10,1)	(1,66)	(91,5)	(74,1)	(-1,1)	(81,3)	(1,0)	(1,0)	(1,0)	(1,0)	(1,0)	(1,0)	(1,0)	
L1D -74>	(2,4)	(-202,1)	(5,1)	(-45,1)	(1,22)	(0,2)	(-1,1)	(-11,5)	(-8,2)	(73,2)	(-44,1)	(-128,1)	(60,1)	(-236,1)	(-154,1)	(1,0)	
L1D -73>	(-4,1)	(74,1)	(62,1)	(-202,1)	(-106,1)	(-102,1)	(-74,1)	(-18,1)	(72,11)	(1,37)	(-48,1)	(-19,1)	(-218,1)	(0,1)	(4,1)	(-1,4)	
L1D -72>	(-12,9)	(-202,3)	(-10,1)	(5,1)	(1,12)	(4,1)	(-187,1)	(-51,1)	(72,6)	(0,1)	(384,1)	(-106,1)	(-234,1)	(6,2)	(176,1)	(-1,1)	
L1D -71>	(-202,4)	(4,1)	(8,1)	(-11,1)	(1,7)	(240,1)	(9,3)	(-200,1)	(-132,1)	(-214,1)	(0,1)	(-1,2)	(-10,4)	(-13,4)	(70,5)	(1,0)	
L1D -70>	(-2,1)	(1,26)	(-202,4)	(2,2)	(5,1)	(0,1)	(3,3)	(9,7)	(-1,2)	(118,1)	(-50,1)	(69,9)	(83,2)	(71,1)	(128,1)	(1,0)	
L1D -69>	(2,3)	(250,2)	(9,1)	(-1,1)	(-14,73)	(-16,64)	(3,0)	(1,41)	(83,2)	(82,3)	(-114,0)	(-90,0)	(4,0)	(0,0)	(-13,7)	(-5,0)	
L1D -68>	(81,2)	(2,4)	(66,1)	(4,2)	(1,14)	(-147,1)	(250,5)	(160,1)	(-68,1)	(-32,1)	(68,1)	(-24,13)	(0,2)	(-17,51)	(-15,98)	(-16,19)	
L1D -67>	(1,72)	(-202,3)	(2,4)	(3,12)	(64,19)	(65,6)	(-66,13)	(138,6)	(18,2)	(38,3)	(56,1)	(0,1)	(66,2)	(106,1)	(68,1)	(-1,2)	
L1D -66>	(2,8)	(10,1)	(-53,1)	(-202,1)	(0,1)	(67,1)	(-1,13)	(63,4)	(3,4)	(1,36)	(-66,11)	(230,1)	(-64,1)	(-126,1)	(64,1)	(252,1)	
L1D -65>	(-6,0)	(69,94)	(-16,16)	(-13,0)	(-202,0)	(-14,22)	(71,1)	(3,0)	(65,0)	(64,0)	(1,4)	(-1,0)	(142,0)	(-18,5)	(-10,0)	(0,32)	
L1D -64>	(-17,4)	(-15,9)	(55,0)	(5,2)	(-90,0)	(1,0)	(65,0)	(64,0)	(2,0)	(142,0)	(63,0)	(8,0)	(-1,0)	(32,92)	(122,0)	(-188,0)	
L1D -63>	(-202,3)	(4,2)	(2,11)	(8,8)	(5,1)	(6,3)	(3,3)	(1,19)	(-94,31)	(63,5)	(-1,2)	(-90,1)	(-200,1)	(-220,1)	(64,1)	(160,1)	
L1D -62>	(-202,3)	(1,33)	(2,3)	(-1,2)	(-94,28)	(0,1)	(-88,1)	(62,24)	(59,11)	(312,1)	(216,1)	(44,1)	(-108,1)	(-97,1)	(226,1)	(63,1)	
L1D -61>	(-248,13)	(2,7)	(62,2)	(1,11)	(-1,3)	(0,3)	(3,4)	(-54,1)	(-30,1)	(-26,1)	(4,2)	(-178,1)	(-154,1)	(-150,1)	(-122,1)	(-66,1)	
L1D -60>	(2,2)	(-5,3)	(186,1)	(-43,1)	(4,1)	(0,3)	(5,1)	(57,1)	(1,20)	(-248,33)	(244,1)	(60,85)	(158,1)	(436,1)	(-1,3)	(106,1)	
L1D -59>	(-202,5)	(142,1)	(2,4)	(1,41)	(42,6)	(257,7)	(256,13)	(3,7)	(232,1)	(-52,2)	(302,1)	(60,2)	(-1,13)	(-18,1)	(227,1)	(166,1)	
L1D -58>	(-202,2)	(-1,9)	(-112,1)	(2,4)	(42,2)	(1,11)	(255,4)	(257,1)	(3,4)	(256,1)	(60,1)	(204,1)	(62,1)	(208,1)	(57,109)	(12,6)	
L1D -57>	(62,0)	(52,65)	(0,2)	(64,0)	(58,0)	(46,0)	(-202,0)	(1,3)	(-58,0)	(10,4)	(-36,1)	(3,1)	(256,1)	(-1,0)	(-52,0)	(76,3)	
L1D -56>	(-202,2)	(-1,2)	(102,1)	(58,1)	(0,1)	(1,48)	(59,1)	(-36,8)	(-58,2)	(3,9)	(257,11)	(2,3)	(256,11)	(232,1)	(76,48)	(255,3)	
L1D -55>	(17,1)	(33,1)	(256,1)	(4,1)	(8,88)	(1,9)	(67,1)	(-67,1)	(202,2)	(0,1)	(1,0)	(1,0)	(1,0)	(1,0)	(1,0)	(1,0)	
L1D -54>	(-202,4)	(1,13)	(55,1)	(2,4)	(0,3)	(4,9)	(13,52)	(54,9)	(-156,1)	(206,1)	(222,1)	(88,1)	(-1,1)	(186,1)	(44,1)	(1,0)	
L1D -53>	(2,9)	(54,2)	(3,3)	(-1,7)	(1,4)	(79,4)	(-106,1)	(-54,1)	(-202,1)	(-174,1)	(-150,1)	(-122,1)	(-296,1)	(-70,1)	(-66,1)	(-14,1)	
L1D -52>	(27,1)	(2,26)	(-99,1)	(103,1)	(8,1)	(-1,3)	(3,3)	(-28,1)	(194,1)	(-390,1)	(148,1)	(26,1)	(180,1)	(146,1)	(291,1)	(1,0)	
L1D -51>	(1,53)	(8,1)	(2,7)	(-202,4)	(54,1)	(-4,1)	(4,3)	(50,6)	(-66,1)	(-28,1)	(-1,3)	(51,84)	(45,1)	(1,0)	(1,0)	(1,0)	
L1D -50>	(49,26)	(47,3)	(126,1)	(-202,1)	(5,2)	(4,1)	(-271,1)	(2,1)	(9,5)	(1,7)	(0,1)	(-112,1)	(307,1)	(258,1)	(216,1)	(-52,1)	
L1D -49>	(-160,1)	(-26,1)	(-4,4)	(50,1)	(38,1)	(-202,1)	(4,1)	(8,18)	(1,16)	(138,5)	(48,4)	(0,18)	(-1,3)	(-25,8)	(117,1)	(321,1)	
L1D -48>	(52,2)	(0,0)	(100,0)	(182,0)	(1,0)	(-202,0)	(4,0)	(7,0)	(35,0)	(138,0)	(-96,11)	(-144,78)	(-180,0)	(-64,0)	(1,0)	(1,0)	
L1D -47>	(-1,4)	(30,121)	(10,20)	(42,10)	(38,5)	(43,1)	(19,1)	(6,90)	(3,1)	(-7,32)	(35,104)	(1,33)	(170,4)	(54,1)	(47,1)	(44,1)	
L1D -46>	(-12,1)	(33,0)	(23,0)	(-1,103)	(-100,0)	(5,1)	(-77,0)	(2,0)	(15,0)	(43,0)	(170,0)	(1,2)	(8,0)	(-252,0)	(321,0)	(-14,0)	
L1D -45>	(46,0)	(25,2)	(2,1)	(62,0)	(-1,0)	(1,3)	(-23,1)	(-40,89)	(-44,0)	(68,0)	(0,0)	(-22,1)	(-98,0)	(-42,0)	(-38,0)	(-14,0)	
L1D -44>	(0,2)	(31,35)	(30,96)	(27,5)	(2,2)	(44,2)	(26,2)	(16,1)	(64,1)	(1,8)	(8,7)	(-20,1)	(39,1)	(143,1)	(250,1)	(-13,1)	
L1D -43>	(42,2)	(19,3)	(28,17)	(-202,3)	(2,5)	(27,1)	(31,1)	(4,4)	(1,126)	(44,14)	(0,1)	(49,3)	(-1,5)	(17,21)	(39,3)	(262,2)	
L1D -42>	(2,2)	(9,1)	(168,1)	(6,10)	(-12,1)	(43,66)	(1,6)	(-1,1)	(0,2)	(317,1)	(-238,1)	(42,4)	(17,1)	(1,0)	(1,0)	(1,0)	
L1D -41>	(17,61)	(-1,3)	(9,2)	(-25,1)	(53,1)	(31,0)	(-26,0)	(1,83)	(1,0)	(1,0)	(1,0)	(1,0)	(1,0)	(1,0)	(1,0)	(1,0)	
L1D -40>	(28,51)	(-202,1)	(31,2)	(5,2)	(6,1)	(12,1)	(13,10)	(10,10)	(25,95)	(1,19)	(19,64)	(-1,1)	(16,1)	(-26,0)	(74,0)	(-64,0)	
L1D -39>	(-317,1)	(-1,5)	(31,5)	(-67,1)	(402,1)	(0,1)	(9,0)	(3,2)	(36,0)	(8,70)	(-376,4)	(1,80)	(2,3)	(37,0)	(1,0)	(1,0)	
L1D -38>	(10,4)	(43,1)	(16,1)	(1,6)	(-349,1)	(13,12)	(3,1)	(8,103)	(35,21)	(-1,8)	(36,1)	(38,3)	(6,10)	(-376,5)	(4,1)	(28,2)	
L1D -37>	(-4,3)	(-10,89)	(1,67)	(-7,47)	(20,9)	(38,2)	(2,7)	(3,12)	(13,106)	(224,3)	(-1,16)	(36,2)	(4,11)	(17,5)	(0,3)	(-178,1)	
L1D -36>	(5,5)	(65,3)	(20,1)	(2,1)	(8,4)	(-4,5)	(38,126)	(9,6)	(1,5)	(3,2)	(6,2)	(4,1)	(36,2)	(37,0)	(10,2)	(-1,1)	
L1D -35>	(18,31)	(2,20)	(32,12)	(8,65)	(31,59)	(3,35)	(-1,127)	(34,14)	(-340,9)	(-376,78)	(0,26)	(190,1)	(1,126)	(5,51)	(9,5)	(27,50)	
L1D -34>	(-376,3)	(5,1)	(-24,1)	(69,18)	(9,1)	(-94,1)	(-1,3)	(34,2)	(118,1)	(82,1)	(1,5)	(36,4)	(17,6)	(8,67)	(2,2)	(-22,1)	
L1D -33>	(0,1)	(6,11)	(30,28)	(42,1)	(32,4)	(4,1)	(3,2)	(-1,5)	(1,26)	(-4,1)	(214,2)	(13,7)	(-78,3)	(8,104)	(27,2)	(76,4)	
L1D -32>	(-7,12)	(1,7)	(0,0)	(31,0)	(13,5)	(27,1)	(15,109)	(76,0)	(8,0)	(5,0)	(-1,15)	(2,5)	(3,1)	(-216,0)	(32,3)	(33,0)	
L1D -31>	(-4,9)	(31,47)	(-8,10)	(8,98)	(-7,97)	(28,22)	(4,14)	(23,13)	(-290,1)	(13,9)	(18,12)	(3,9)	(2,23)	(138,11)	(1,114)	(6,65)	
L1D -30>	(1,98)	(27,22)	(-1,54)	(26,15)	(42,16)	(14,13)	(28,1)	(35,5)	(-7,29)	(252,5)	(-2,4)	(4,5)	(-4,9)	(17,18)	(6,94)	(138,4)	
L1D -29>	(-16,3)	(29,3)	(-5,2)	(30,9)	(8,99)	(42,1)	(4,2)	(19,6)	(9,2)	(28,2)	(2,4)	(-1,3)	(1,26)	(14,1)	(27,1)	(-2,1)	
L1D -28>	(-16,0)	(1,5)	(-10,1)	(42,0)	(-7,50)	(29,2)	(32,5)	(20,2)	(-1,0)	(10,0)	(43,0)	(4,1)	(8,0)	(27,1)	(30,85)	(13,2)	
L1D -27>	(1,108)	(27,3)	(-8,2)	(20,3)	(16,16)	(52,1)	(40,12)	(26,5)	(25,3)	(-4,1)	(-1,11)	(15,7)	(3,1)	(0,6)	(8,2)	(-2,1)	
L1D -26>	(27,0)	(28,0)	(-378,0)	(49,0)	(0,0)	(25,0)	(26,86)	(1,10)	(23,0)	(4,0)	(3,0)	(6,0)	(21,19)	(7,0)	(-2,0)	(-4,0)	
L1D -25>	(5,0)	(13,0)	(47,0)	(41,0)	(210,1)	(6,5)	(10,0)	(-133,1)	(1,69)	(-388,0)	(-1,22)	(0,6)	(23,65)	(-197,0)	(24,0)	(25,92)	
L1D -24>	(-48,0)	(82,5)	(5,0)	(24,1)	(0,2)	(-376,0)	(9,0)	(12,0)	(85,0)	(4,75)	(94,0)	(21,2)	(-226,0)	(-221,0)	(-11,0)	(1,68)	
L1D -23>	(-12,11)	(33,98)	(5,9)	(14,19)	(16,16)	(21,14)	(12,29)	(-1,12)	(13,4)	(25,18)	(26,1)	(2,21)	(1,124)	(22,64)	(11,37)	(23,19)	
L1D -22>	(1,9)	(0,68)	(-254,1)	(-33,1)	(-34,0)	(-18,2)	(2,0)	(-15,3)	(310,0)	(-296,0)	(-17,77)	(30,0)	(16,1)	(3,1)	(6,1)	(14,4)	
L1D -21>	(8,5)	(-33,2)	(18,22)	(9,5)	(-1,5)	(30,4)	(6,28)	(16,6)	(5,98)	(20,1)	(-34,16)	(1,42)	(-20,41)	(7,1)	(-36,1)	(-26,5)	
L1D -20>	(0,42)	(-1,0)	(16,0)	(-79,0)	(-123,0)	(4,5)	(11,37)	(21,1)	(-7,2)	(-4,0)	(-151,0)	(1,100)	(20,14)	(17,31)	(117,0)	(12,0)	
L1D -19>	(-1,0)	(12,0)	(1,27)	(8,66)	(33,0)	(11,0)	(7,0)	(18,0)	(2,3)	(19,0)	(25,11)	(20,1)	(23,10)	(-5,0)	(119,0)	(28,0)	
L1D -18>	(25,2)	(87,2)	(19,2)	(-9,0)	(47,0)	(18,0)	(-46,0)	(-92,0)	(4,1)	(2,87)	(1,2)	(-66,0)	(15,0)	(3,0)	(336,0)	(74,0)	
L1D -17>	(25,2)	(11,4)	(76,19)	(15,16)	(16,8)	(10,16)	(4,9)	(2,2)	(17,53)	(1,8)	(-1,0)	(5,84)	(14,1)	(8,4)	(39,34)	(18,3)	
L1D -16>	(16,23)	(1,54)	(-1,9)	(-25,3)	(13,1)	(30,9)	(10,13)	(74,77)	(17,2)	(11,13)	(9,3)	(15,79)	(20,65)	(2,4)	(19,1)	(21,54)	
L1D -15>	(17,3)	(16,1)	(191,3)	(-18,0)	(-11,0)	(1,49)	(9,5)	(0,2)	(8,80)	(13,12)	(-6,3)	(-1,1)	(10,7)	(-143,1)	(15,3)	(4,2)	
L1D -14>	(9,6)	(2,55)	(1,86)	(13,111)	(14,5)	(10,6)	(-27,10)	(7,2)	(-41,2)	(12,33)	(0,13)	(74,20)	(8,109)	(11,6)	(-4,3)	(4,1)	
L1D -13>	(1,71)	(14,2)	(12,17)	(-17,104)	(15,1)	(-5,5)	(-1,2)	(2,2)	(9,8)	(11,4)	(6,2)	(84,7)	(0,45)	(74,66)	(8,3)	(19,2)	
L1D -12>	(11,1)	(-5,32)	(9,23)	(0,6)	(18,0)	(8,1)	(-16,0)	(5,0)	(74,4)	(-1,89)	(2,1)	(1,78)	(14,5)	(3,0)	(7,1)	(12,40)	
L1D -11>	(10,10)	(6,4)	(9,2)	(14,3)	(2,94)	(-16,4)	(0,23)	(13,3)	(-20,3)	(-1,5)	(-3,0)	(8,21)	(11,37)	(12,1)	(18,14)	(1,102)	
L1D -10>	(1,30)	(3,35)	(15,10)	(38,1)	(191,0)	(10,4)	(-98,0)	(-28,85)	(2,6)	(11,0)	(75,6)	(0,0)	(6,9)	(-10,0)	(20,2)	(17,18)	
L1D -9>	(10,51)	(1,30)	(38,3)	(0,1)	(4,15)	(-5,100)	(253,2)	(-1,25)	(-236,3)	(74,5)	(18,27)	(-12,2)	(9,8)	(-7,67)	(8,11)	(3,3)	
L1D -8>	(21,9)	(10,72)	(-12,113)	(8,19)	(4,40)	(23,25)	(15,100)	(5,55)	(-8,67)	(0,29)	(-1,1)	(26,40)	(7,45)	(-5,96)	(1,37)	(9,27)	
L1D -7>	(7,49)	(6,18)	(40,62)	(16,10)	(1,5)	(14,6)	(20,8)	(-1,1)	(13,13)	(17,11)	(0,2)	(2,4)	(8,1)	(3,3)	(15,8)	(-12,84)	
L1D -6>	(7,6)	(-1,1)	(1,43)	(6,78)	(0,127)	(-13,13)	(13,5)	(-10,2)	(8,2)	(74,1)	(-3,61)	(10,3)	(4,6)	(5,13)	(2,5)	(-5,2)	
L1D -5>	(-5,5)	(71,12)	(4,96)	(-1,14)	(-10,34)	(65,20)	(3,18)	(-7,1)	(7,48)	(6,17)	(14,19)	(12,33)	(10,20)	(2,6)	(1,126)	(-4,25)	
L1D -4>	(-2,60)	(-16,22)	(72,21)	(7,5)	(-65,14)	(0,4)	(2,53)	(-1,0)	(-15,3)	(5,80)	(11,19)	(12,12)	(-4,4)	(4,125)	(1,34)	(-5,9)	
L1D -3>	(-92,27)	(-28,14)	(13,28)	(-4,4)	(-7,12)	(-13,27)	(6,1)	(4,93)	(-98,2)	(2,64)	(-106,9)	(-1,2)	(1,67)	(5,9)	(-3,53)	(-11,2)	
L1D -2>	(-8,1)	(6,7)	(-305,0)	(0,7)	(1,41)	(5,0)	(-58,2)	(4,0)	(-2,6)	(-1,4)	(2,120)	(9,0)	(-13,0)	(-16,0)	(3,7)	(-36,0)	
L1D -1>	(7,1)	(-11,6)	(-31,2)	(-5,4)	(8,2)	(-57,1)	(19,1)	(-1,2)	(5,1)	(-7,2)	(1,84)	(-3,3)	(3,1)	(-2,2)	(0,3)	(2,8)	
L1D 0>	(0,73)	(-14,0)	(-15,0)	(10,0)	(-9,3)	(-2,4)	(-29,0)	(2,0)	(1,22)	(-272,10)	(-13,1)	(-26,5)	(-1,4)	(-25,8)	(8,2)	(-8,1)	
L1D 1>	(1,120)	(24,14)	(-3,4)	(-15,6)	(-1,106)	(-4,11)	(-7,1)	(-2,35)	(-17,2)	(-43,1)	(19,16)	(51,16)	(7,2)	(3,5)	(33,17)	(0,29)	
L1D 2>	(1,20)	(-3,24)	(-4,3)	(2,81)	(30,1)	(-10,9)	(5,44)	(0,43)	(11,31)	(-17,2)	(-5,13)	(-11,1)	(-2,125)	(-1,30)	(7,1)	(8,2)	
L1D 3>	(-20,9)	(-4,20)	(3,86)	(-5,74)	(1,103)	(14,1)	(-1,4)	(-16,3)	(-2,4)	(-9,6)	(0,9)	(72,19)	(-29,4)	(2,12)	(-15,15)	(-6,25)	
L1D 4>	(12,9)	(2,5)	(20,52)	(-13,31)	(3,13)	(-4,103)	(0,4)	(4,24)	(71,11)	(8,7)	(-2,103)	(-8,8)	(-3,98)	(-5,1)	(1,126)	(-1,107)	
L1D 5>	(-7,2)	(-4,1)	(1,83)	(-17,9)	(-3,40)	(-16,1)	(-5,2)	(0,31)	(8,1)	(-13,48)	(2,2)	(3,4)	(-1,4)	(-25,37)	(-10,5)	(-12,1)	
L1D 6>	(-65,57)	(-17,3)	(-19,1)	(-2,1)	(-6,43)	(-83,7)	(2,12)	(8,1)	(-5,4)	(32,1)	(20,4)	(7,1)	(-8,1)	(0,49)	(4,3)	(1,65)	
L1D 7>	(-9,15)	(15,4)	(5,1)	(0,5)	(-8,18)	(6,108)	(-13,13)	(-6,12)	(-5,13)	(-4,29)	(-3,3)	(1,23)	(-2,3)	(-7,81)	(-16,34)	(-11,19)	
L1D 8>	(-16,33)	(-7,17)	(-28,12)	(6,25)	(12,2)	(3,1)	(-1,3)	(1,3)	(7,17)	(-2,1)	(-4,7)	(-5,11)	(4,42)	(-11,8)	(8,38)	(5,65)	
L1D 9>	(-18,2)	(-24,2)	(1,46)	(-12,1)	(-16,0)	(5,6)	(-17,8)	(65,9)	(-1,18)	(-20,2)	(-9,6)	(-34,2)	(-7,0)	(-10,9)	(-6,110)	(-21,2)	
L1D 10>	(3,2)	(5,2)	(-1,74)	(-4,11)	(-2,3)	(65,2)	(0,1)	(-17,7)	(-7,7)	(16,1)	(4,12)	(-3,4)	(-13,3)	(6,2)	(1,2)	(7,5)	
L1D 11>	(-11,25)	(-23,9)	(0,6)	(-14,11)	(-8,6)	(2,5)	(9,5)	(-13,10)	(-1,62)	(-12,1)	(-9,30)	(5,3)	(-3,5)	(1,10)	(-32,108)	(-6,7)	
L1D 12>	(-14,6)	(-15,1)	(-1,41)	(-20,11)	(-4,7)	(0,4)	(-8,3)	(-5,65)	(-13,3)	(-9,7)	(108,0)	(8,1)	(-12,58)	(2,0)	(-16,2)	(4,3)	
L1D 13>	(-2,1)	(-13,83)	(-15,0)	(2,9)	(-20,105)	(1,47)	(-84,18)	(-83,7)	(-6,2)	(6,8)	(-7,0)	(-5,97)	(3,38)	(-1,0)	(-12,1)	(5,1)	
L1D 14>	(-30,1)	(-5,15)	(58,38)	(-8,9)	(-55,14)	(-12,5)	(-6,108)	(-9,7)	(-41,29)	(1,3)	(-3,38)	(-16,20)	(-27,2)	(-1,5)	(-13,19)	(-54,1)	
L1D 15>	(66,1)	(-13,1)	(2,1)	(-12,0)	(1,3)	(60,1)	(-3,21)	(-378,0)	(-354,0)	(-1,0)	(-23,0)	(58,2)	(-20,65)	(-5,113)	(-43,0)	(-11,1)	
L1D 16>	(4,7)	(0,4)	(-13,3)	(-6,38)	(-8,7)	(-1,1)	(14,16)	(1,6)	(-15,1)	(-4,92)	(-5,33)	(-16,16)	(-3,3)	(5,2)	(-34,3)	(60,2)	
L1D 17>	(-17,55)	(1,69)	(-3,51)	(14,3)	(-7,0)	(0,16)	(-16,12)	(6,22)	(-1,5)	(-2,1)	(-13,0)	(31,0)	(-40,0)	(-23,0)	(26,0)	(-12,0)	
L1D 18>	(-11,3)	(-10,3)	(-16,49)	(-17,10)	(1,12)	(-3,3)	(-6,11)	(69,43)	(58,24)	(-14,2)	(-26,111)	(-5,27)	(-2,3)	(-43,16)	(-18,4)	(34,1)	
L1D 19>	(1,80)	(-4,1)	(-47,0)	(-17,1)	(0,5)	(-51,0)	(-18,0)	(-10,1)	(-20,83)	(-22,0)	(-2,2)	(-5,12)	(-19,21)	(6,0)	(-8,0)	(-15,5)	
L1D 20>	(-124,1)	(20,67)	(-3,22)	(-9,2)	(-26,58)	(-27,1)	(-40,0)	(-16,0)	(-25,0)	(-20,29)	(115,0)	(184,0)	(-1,0)	(30,0)	(1,0)	(0,3)	
L1D 21>	(9,2)	(1,7)	(0,1)	(-28,1)	(-27,1)	(-2,1)	(-36,4)	(-20,3)	(-8,0)	(-18,0)	(-43,0)	(-10,0)	(15,0)	(2,123)	(3,86)	(-15,0)	
L1D 22>	(2,48)	(-6,1)	(-13,2)	(-138,1)	(-60,1)	(110,1)	(-1,4)	(10,4)	(8,1)	(0,2)	(-21,1)	(3,3)	(1,3)	(16,85)	(-14,3)	(-28,1)	
L1D 23>	(-3,4)	(-29,0)	(-1,0)	(7,0)	(-23,3)	(-11,5)	(-38,0)	(-22,1)	(-24,0)	(8,0)	(5,0)	(9,0)	(1,1)	(2,87)	(-2,13)	(-6,0)	
L1D 24>	(-8,14)	(14,2)	(-20,0)	(-380,0)	(8,0)	(-4,0)	(124,0)	(-94,0)	(-82,0)	(100,0)	(1,2)	(-12,0)	(-16,1)	(-19,108)	(58,3)	(-7,0)	
L1D 25>	(-3,1)	(-38,1)	(-30,2)	(11,3)	(3,0)	(0,86)	(-24,67)	(-2,7)	(-5,2)	(-1,0)	(-9,3)	(-25,94)	(191,0)	(38,0)	(2,1)	(1,14)	
L1D 26>	(-32,0)	(1,2)	(-2,0)	(9,0)	(6,0)	(-24,29)	(-30,0)	(7,0)	(-41,0)	(-26,0)	(-16,0)	(-29,0)	(-5,1)	(-1,0)	(0,100)	(-19,0)	
L1D 27>	(-11,15)	(-1,13)	(-26,11)	(-13,21)	(8,15)	(6,25)	(-28,16)	(-29,4)	(-27,5)	(0,52)	(-12,1)	(2,4)	(112,1)	(-9,9)	(3,10)	(1,12)	
L1D 28>	(-28,10)	(10,85)	(28,4)	(-13,92)	(3,31)	(-1,1)	(-38,4)	(4,3)	(6,2)	(-12,53)	(-20,6)	(1,23)	(-4,2)	(-19,2)	(0,2)	(-27,5)	
L1D 29>	(0,2)	(-121,2)	(2,3)	(-14,47)	(-13,27)	(-29,3)	(-10,3)	(-43,1)	(1,75)	(-32,6)	(3,5)	(-4,14)	(-30,8)	(-2,12)	(-28,13)	(-31,1)	
L1D 30>	(-3,2)	(-2,1)	(-4,1)	(8,6)	(-33,1)	(6,0)	(-28,0)	(0,0)	(2,84)	(-18,5)	(-20,0)	(-17,2)	(-30,0)	(-34,1)	(1,2)	(-32,3)	
L1D 31>	(3,3)	(-11,2)	(-8,44)	(-1,45)	(8,3)	(-5,72)	(12,6)	(-31,6)	(-10,4)	(-22,3)	(-25,18)	(-61,3)	(0,1)	(1,24)	(-33,1)	(-32,15)	
L1D 32>	(-253,2)	(-16,1)	(-42,1)	(36,0)	(-110,0)	(120,0)	(0,0)	(-1,0)	(1,0)	(-32,0)	(-31,0)	(2,0)	(3,0)	(-5,0)	(-19,8)	(113,74)	
L1D 33>	(-38,7)	(-41,16)	(-17,0)	(-44,0)	(-37,0)	(-47,0)	(0,0)	(-36,0)	(1,3)	(-4,0)	(-2,0)	(-14,0)	(-8,0)	(-1,0)	(-18,119)	(3,0)	
L1D 34>	(4,2)	(1,83)	(396,13)	(-13,2)	(-29,7)	(170,2)	(-4,5)	(-321,2)	(-33,3)	(-30,4)	(-1,127)	(71,26)	(-28,1)	(3,4)	(-37,4)	(-35,2)	
L1D 35>	(-228,1)	(-44,5)	(-16,14)	(-20,1)	(-35,3)	(3,13)	(-36,10)	(-1,12)	(13,19)	(9,108)	(0,19)	(-7,9)	(1,7)	(-37,4)	(10,1)	(-255,1)	
L1D 36>	(-37,3)	(4,6)	(72,1)	(8,1)	(-18,1)	(52,1)	(1,20)	(3,7)	(-36,21)	(-1,8)	(-35,3)	(2,9)	(119,1)	(120,1)	(62,1)	(-8,1)	
L1D 37>	(-11,2)	(-36,16)	(2,4)	(-37,2)	(-1,125)	(-12,1)	(1,80)	(-276,2)	(-4,8)	(-30,4)	(-34,1)	(0,2)	(436,2)	(-38,1)	(-94,1)	(298,1)	
L1D 38>	(4,0)	(-59,0)	(90,0)	(-45,2)	(18,0)	(234,0)	(-41,0)	(-321,0)	(104,0)	(-2,65)	(-16,0)	(1,2)	(-4,0)	(-30,0)	(60,0)	(436,0)	
L1D 39>	(-35,1)	(-45,0)	(-1,1)	(-22,108)	(1,1)	(121,0)	(181,0)	(-54,0)	(4,0)	(-28,0)	(18,0)	(1,0)	(1,0)	(1,0)	(1,0)	(1,0)	
L1D 40>	(60,0)	(2,0)	(5,0)	(6,0)	(1,0)	(-34,0)	(-42,2)	(-33,0)	(16,0)	(-22,0)	(-14,0)	(-12,102)	(-13,1)	(-41,0)	(-418,0)	(77,0)	
L1D 41>	(-181,4)	(-42,3)	(-44,1)	(-35,30)	(1,86)	(3,14)	(2,5)	(6,2)	(4,4)	(0,1)	(8,0)	(-23,0)	(72,10)	(-1,5)	(-6,1)	(-330,1)	
L1D 42>	(-31,7)	(1,21)	(72,15)	(-11,14)	(-39,79)	(-32,120)	(-37,15)	(-14,6)	(-4,42)	(-2,9)	(-250,1)	(-45,7)	(5,15)	(-41,6)	(-36,8)	(-6,8)	
L1D 43>	(-6,5)	(-106,4)	(-42,71)	(1,84)	(0,1)	(-1,6)	(6,1)	(-7,1)	(46,1)	(1,0)	(1,0)	(1,0)	(1,0)	(1,0)	(1,0)	(1,0)	
L1D 44>	(4,7)	(-12,9)	(-43,2)	(-47,4)	(-28,1)	(-10,1)	(-44,3)	(1,6)	(50,1)	(-52,1)	(285,1)	(-186,1)	(128,1)	(-1,1)	(244,1)	(0,1)	
L1D 45>	(-240,1)	(1,41)	(0,2)	(-1,3)	(-68,2)	(-394,3)	(46,4)	(-85,5)	(-310,1)	(-82,1)	(48,1)	(1,0)	(1,0)	(1,0)	(1,0)	(1,0)	
L1D 46>	(4,3)	(46,1)	(1,19)	(24,1)	(6,1)	(32,1)	(-246,1)	(56,1)	(-41,2)	(-45,5)	(-50,2)	(-321,1)	(84,1)	(-2,1)	(-3,2)	(-16,1)	
L1D 47>	(-47,2)	(-46,2)	(-150,1)	(7,1)	(3,1)	(-7,1)	(-1,7)	(-104,1)	(1,29)	(132,1)	(-56,3)	(46,6)	(54,1)	(1,0)	(1,0)	(1,0)	
L1D 48>	(-47,2)	(-192,1)	(-1,1)	(-144,0)	(-48,0)	(-58,0)	(49,126)	(337,3)	(1,3)	(1,0)	(1,0)	(1,0)	(1,0)	(1,0)	(1,0)	(1,0)	
L1D 49>	(-6,1)	(-2,0)	(1,1)	(-34,0)	(-38,0)	(-4,0)	(-49,1)	(-254,0)	(-50,0)	(144,78)	(-1,0)	(64,0)	(1,0)	(1,0)	(1,0)	(1,0)	
L1D 50>	(-31,1)	(4,4)	(5,1)	(6,2)	(48,1)	(-53,1)	(1,13)	(-49,3)	(-45,1)	(76,1)	(92,1)	(-1,4)	(-30,1)	(-210,1)	(-65,1)	(-60,1)	
L1D 51>	(60,0)	(-134,0)	(1,1)	(-45,98)	(-51,10)	(1,0)	(1,0)	(1,0)	(1,0)	(1,0)	(1,0)	(1,0)	(1,0)	(1,0)	(1,0)	(1,0)	
L1D 52>	(4,0)	(-366,0)	(-76,0)	(-88,0)	(-20,0)	(58,0)	(14,0)	(1,0)	(10,71)	(-154,1)	(56,0)	(-4,0)	(-53,0)	(1,0)	(1,0)	(1,0)	
L1D 53>	(1,64)	(2,25)	(3,6)	(4,1)	(5,1)	(6,3)	(-26,1)	(-422,33)	(-54,5)	(-1,1)	(136,1)	(0,1)	(-78,1)	(1,0)	(1,0)	(1,0)	
L1D 54>	(-254,3)	(4,5)	(6,2)	(-54,13)	(1,9)	(-1,1)	(-49,3)	(-3,2)	(-51,1)	(-123,1)	(-53,3)	(-321,1)	(68,1)	(100,1)	(2,1)	(170,1)	
L1D 55>	(-49,1)	(-2,14)	(1,25)	(-28,8)	(-20,1)	(-1,2)	(-56,1)	(0,1)	(13,2)	(-36,3)	(6,1)	(-7,1)	(-100,1)	(1,0)	(1,0)	(1,0)	
L1D 56>	(6,1)	(5,3)	(1,4)	(4,29)	(170,1)	(-27,1)	(-1,1)	(-382,1)	(-82,1)	(-10,1)	(-28,3)	(0,1)	(-112,1)	(-38,4)	(14,1)	(1,0)	
L1D 57>	(-1,5)	(2,2)	(1,3)	(-5,107)	(-57,2)	(-58,1)	(1,0)	(1,0)	(1,0)	(1,0)	(1,0)	(1,0)	(1,0)	(1,0)	(1,0)	(1,0)	
L1D 58>	(-13,2)	(6,117)	(4,5)	(-260,2)	(1,3)	(-46,8)	(-158,1)	(5,1)	(-59,1)	(-321,2)	(-61,1)	(-3,1)	(-56,1)	(-57,1)	(-127,1)	(60,1)	
L1D 59>	(0,1)	(272,9)	(1,6)	(-21,11)	(-59,1)	(-60,1)	(-1,2)	(6,3)	(-340,1)	(1,0)	(1,0)	(1,0)	(1,0)	(1,0)	(1,0)	(1,0)	
L1D 60>	(1,41)	(-65,10)	(4,18)	(6,11)	(20,1)	(272,2)	(-70,6)	(0,1)	(-18,1)	(-89,1)	(-6,1)	(-60,88)	(-341,1)	(52,1)	(54,1)	(-142,1)	
L1D 61>	(-1,11)	(1,10)	(2,9)	(-64,6)	(3,13)	(-63,1)	(-124,1)	(-153,4)	(6,5)	(-38,1)	(1,0)	(1,0)	(1,0)	(1,0)	(1,0)	(1,0)	
L1D 62>	(4,4)	(5,2)	(-62,11)	(0,16)	(-7,1)	(1,6)	(-66,3)	(-3,3)	(-60,1)	(-61,1)	(-262,1)	(52,1)	(3,7)	(-65,5)	(-1,11)	(-64,4)	
L1D 63>	(1,19)	(-142,10)	(-63,5)	(3,4)	(-64,19)	(120,1)	(-1,5)	(-62,1)	(-98,1)	(1,0)	(1,0)	(1,0)	(1,0)	(1,0)	(1,0)	(1,0)	
L1D 64>	(2,2)	(1,31)	(4,21)	(6,3)	(5,2)	(-104,8)	(-108,3)	(-112,4)	(-24,5)	(-142,20)	(3,20)	(-64,46)	(-63,3)	(-65,2)	(10,1)	(120,1)	
L1D 65>	(-23,26)	(-64,2)	(3,1)	(2,5)	(-1,14)	(-65,5)	(1,6)	(10,5)	(6,107)	(-75,3)	(-88,1)	(1,0)	(1,0)	(1,0)	(1,0)	(1,0)	
L1D 66>	(6,3)	(-194,1)	(4,5)	(5,3)	(-65,17)	(-70,1)	(-126,1)	(2,1)	(80,1)	(104,1)	(-1,2)	(1,1)	(-288,1)	(40,1)	(-12,1)	(-74,1)	
L1D 67>	(-3,1)	(-18,23)	(1,27)	(-80,1)	(170,1)	(4,1)	(6,1)	(3,1)	(-1,5)	(0,1)	(-44,2)	(173,1)	(-46,1)	(1,0)	(1,0)	(1,0)	
L1D 68>	(2,3)	(-71,1)	(4,12)	(9,3)	(-18,1)	(1,4)	(-120,1)	(230,1)	(-72,2)	(164,1)	(-216,1)	(-32,1)	(-92,3)	(0,7)	(-1,1)	(-74,1)	
L1D 69>	(-1,0)	(-56,0)	(-135,0)	(14,0)	(70,3)	(-149,0)	(-140,0)	(-482,0)	(2,0)	(-69,88)	(-68,26)	(1,7)	(1,0)	(1,0)	(1,0)	(1,0)	
L1D 70>	(4,4)	(70,4)	(-168,1)	(16,1)	(5,2)	(1,15)	(-74,2)	(-1,3)	(-321,1)	(-66,1)	(-65,1)	(-3,1)	(-69,5)	(64,1)	(-47,1)	(0,23)	
L1D 71>	(-85,25)	(-74,1)	(-84,1)	(-82,1)	(1,45)	(-56,8)	(0,50)	(-72,10)	(-24,1)	(-1,10)	(-65,73)	(-92,45)	(-68,2)	(-64,17)	(13,2)	(70,2)	
L1D 72>	(5,2)	(4,3)	(-92,72)	(-112,1)	(3,0)	(-104,0)	(1,24)	(-56,3)	(-25,0)	(-24,0)	(153,0)	(-258,0)	(-326,0)	(-130,0)	(-1,1)	(-242,0)	
L1D 73>	(1,28)	(-72,1)	(204,11)	(-12,1)	(-57,1)	(2,1)	(-1,11)	(224,1)	(1,0)	(1,0)	(1,0)	(1,0)	(1,0)	(1,0)	(1,0)	(1,0)	
L1D 74>	(-148,0)	(-92,0)	(5,0)	(6,68)	(-2,0)	(2,0)	(-75,5)	(-78,0)	(-274,0)	(10,5)	(-222,0)	(-74,0)	(56,0)	(84,0)	(9,0)	(1,0)	
L1D 75>	(-84,11)	(-60,5)	(114,7)	(-20,21)	(1,7)	(-166,6)	(-71,3)	(-76,5)	(-10,3)	(3,1)	(-1,7)	(-160,1)	(6,27)	(-92,95)	(-68,28)	(-72,9)	
L1D 76>	(6,46)	(-75,26)	(4,7)	(-60,3)	(1,44)	(114,16)	(-20,54)	(-76,18)	(-166,16)	(-64,1)	(298,1)	(0,1)	(-90,1)	(68,1)	(-162,1)	(-70,1)	
L1D 77>	(-3,50)	(1,33)	(64,24)	(-78,14)	(0,7)	(-100,1)	(-76,2)	(-1,4)	(222,1)	(-293,1)	(6,1)	(-92,2)	(-197,3)	(-83,1)	(47,1)	(1,0)	
L1D 78>	(4,5)	(-1,1)	(1,24)	(-82,3)	(-73,1)	(-319,1)	(3,1)	(6,2)	(76,1)	(-2,2)	(64,10)	(-78,1)	(-94,1)	(-278,1)	(244,1)	(128,1)	
L1D 79>	(1,2)	(14,1)	(-248,1)	(-1,0)	(-80,0)	(12,1)	(-79,105)	(-9,0)	(-26,0)	(1,0)	(1,0)	(1,0)	(1,0)	(1,0)	(1,0)	(1,0)	
L1D 80>	(2,1)	(42,1)	(6,2)	(1,7)	(5,2)	(-97,50)	(-114,50)	(-83,47)	(14,1)	(-248,28)	(0,1)	(-218,1)	(-408,1)	(16,2)	(20,3)	(1,0)	
L1D 81>	(-155,1)	(-1,6)	(1,1)	(-23,1)	(12,4)	(-65,4)	(-84,2)	(1,0)	(1,0)	(1,0)	(1,0)	(1,0)	(1,0)	(1,0)	(1,0)	(1,0)	
L1D 82>	(4,1)	(-92,0)	(-46,95)	(-58,1)	(-1,0)	(2,0)	(-81,0)	(-84,1)	(-12,0)	(13,0)	(36,0)	(-77,0)	(6,0)	(68,0)	(100,0)	(-70,1)	
L1D 83>	(13,19)	(9,100)	(0,20)	(7,1)	(-7,2)	(-1,4)	(-224,1)	(1,2)	(-65,2)	(-68,4)	(-13,4)	(-84,3)	(-83,1)	(-110,1)	(1,0)	(1,0)	
L1D 84>	(-82,4)	(-86,2)	(4,6)	(-84,5)	(-89,25)	(-1,1)	(-85,3)	(-192,1)	(1,1)	(382,1)	(-74,1)	(90,1)	(-34,1)	(-10,45)	(-83,1)	(-158,2)	
L1D 85>	(-86,17)	(-100,5)	(-84,1)	(-82,1)	(-99,3)	(-101,1)	(1,73)	(0,4)	(2,2)	(-72,1)	(-1,7)	(1,0)	(1,0)	(1,0)	(1,0)	(1,0)	
L1D 86>	(0,17)	(5,2)	(4,6)	(1,6)	(-85,15)	(86,21)	(-86,19)	(6,4)	(-81,4)	(-479,1)	(28,1)	(60,1)	(-84,2)	(-100,17)	(-68,1)	(-32,1)	
L1D 87>	(0,1)	(-1,3)	(-89,1)	(1,4)	(-68,15)	(-86,3)	(-242,1)	(234,1)	(13,1)	(1,0)	(1,0)	(1,0)	(1,0)	(1,0)	(1,0)	(1,0)	
L1D 88>	(5,2)	(1,2)	(4,3)	(2,6)	(6,43)	(-460,1)	(204,1)	(148,1)	(-1,1)	(-86,7)	(-172,1)	(-140,1)	(-87,2)	(-82,5)	(1,0)	(1,0)	
L1D 89>	(-84,28)	(-86,1)	(1,19)	(3,1)	(-6,1)	(102,4)	(-100,1)	(-1,7)	(-9,4)	(-88,2)	(0,1)	(122,1)	(-3,3)	(1,0)	(1,0)	(1,0)	
L1D 90>	(4,5)	(1,23)	(6,10)	(-89,1)	(2,11)	(-86,20)	(-94,1)	(-3,3)	(-88,1)	(-85,1)	(5,2)	(44,1)	(52,1)	(-84,2)	(-82,47)	(-6,8)	
L1D 91>	(-90,70)	(1,85)	(-6,5)	(-1,3)	(4,1)	(2,3)	(-106,3)	(1,0)	(1,0)	(1,0)	(1,0)	(1,0)	(1,0)	(1,0)	(1,0)	(1,0)	
L1D 92>	(1,5)	(4,5)	(6,50)	(-12,4)	(0,1)	(-418,1)	(80,1)	(-88,3)	(-91,2)	(2,1)	(-60,1)	(-3,81)	(-21,1)	(1,0)	(1,0)	(1,0)	
L1D 93>	(-111,77)	(-115,27)	(0,1)	(-1,5)	(1,3)	(-108,3)	(8,3)	(-92,2)	(-96,2)	(70,1)	(2,1)	(1,0)	(1,0)	(1,0)	(1,0)	(1,0)	
L1D 94>	(4,5)	(2,12)	(6,3)	(-86,3)	(-93,55)	(-84,17)	(-3,9)	(-2,2)	(-109,1)	(96,1)	(104,1)	(-101,6)	(-111,96)	(-85,2)	(-99,28)	(-100,15)	
L1D 95>	(-318,1)	(-32,1)	(1,9)	(-1,2)	(-96,2)	(-94,2)	(1,0)	(1,0)	(1,0)	(1,0)	(1,0)	(1,0)	(1,0)	(1,0)	(1,0)	(1,0)	
L1D 96>	(4,1)	(5,2)	(1,5)	(6,2)	(-96,1)	(160,1)	(-59,1)	(-98,1)	(-1,1)	(2,2)	(-95,1)	(1,0)	(1,0)	(1,0)	(1,0)	(1,0)	
L1D 97>	(-96,1)	(-83,3)	(-111,10)	(-103,2)	(-115,13)	(-130,1)	(-94,4)	(-95,18)	(-128,2)	(-93,2)	(1,6)	(10,1)	(0,2)	(-18,1)	(-99,1)	(-1,1)	
L1D 98>	(4,5)	(-69,2)	(-321,2)	(-84,2)	(1,8)	(-1,5)	(-99,6)	(-97,4)	(-56,2)	(5,2)	(-319,1)	(-93,1)	(-298,1)	(24,1)	(6,2)	(64,2)	
L1D 99>	(2,1)	(1,7)	(-1,18)	(-124,1)	(-204,1)	(0,24)	(9,2)	(-99,24)	(-98,4)	(13,1)	(-101,1)	(1,0)	(1,0)	(1,0)	(1,0)	(1,0)	
L1D 100>	(-6,1)	(-102,2)	(1,4)	(4,5)	(-99,6)	(-1,77)	(-162,1)	(-76,1)	(-358,1)	(2,2)	(-101,1)	(98,1)	(-90,1)	(0,1)	(-106,1)	(-103,1)	
L1D 101>	(-99,29)	(-100,3)	(1,28)	(2,2)	(0,1)	(-1,4)	(1,0)	(1,0)	(1,0)	(1,0)	(1,0)	(1,0)	(1,0)	(1,0)	(1,0)	(1,0)	
L1D 102>	(4,10)	(-101,3)	(-192,4)	(-144,1)	(-106,1)	(6,3)	(-100,1)	(32,1)	(40,1)	(-302,2)	(48,1)	(5,2)	(56,1)	(-304,1)	(1,4)	(84,2)	
L1D 103>	(-318,1)	(-84,3)	(-99,2)	(-104,1)	(-100,3)	(1,9)	(2,1)	(-48,1)	(-192,2)	(-1,4)	(1,0)	(1,0)	(1,0)	(1,0)	(1,0)	(1,0)	
L1D 104>	(-102,1)	(-106,2)	(6,1)	(5,4)	(1,4)	(-104,1)	(0,2)	(-24,1)	(-6,1)	(-3,1)	(-58,1)	(32,1)	(-95,1)	(1,0)	(1,0)	(1,0)	
L1D 105>	(-104,7)	(1,50)	(-95,1)	(-82,15)	(-69,31)	(-71,1)	(-74,6)	(-85,1)	(-105,1)	(2,1)	(-1,4)	(-7,1)	(182,1)	(116,1)	(-218,1)	(1,0)	
L1D 106>	(106,92)	(-115,3)	(-105,9)	(-99,11)	(0,8)	(-314,8)	(-84,6)	(-211,14)	(212,2)	(1,4)	(4,4)	(-106,3)	(-317,14)	(-316,4)	(-104,4)	(-212,18)	
L1D 107>	(2,2)	(-106,6)	(-317,1)	(-314,2)	(-312,2)	(-100,2)	(-89,1)	(-86,2)	(4,1)	(106,1)	(1,37)	(-118,16)	(-28,1)	(-1,10)	(-318,1)	(3,1)	
L1D 108>	(-110,1)	(-107,2)	(-106,2)	(-314,1)	(1,5)	(0,2)	(105,1)	(-28,1)	(-118,6)	(-40,1)	(-108,3)	(-102,1)	(-112,1)	(174,1)	(-129,4)	(-1,1)	
L1D 109>	(4,1)	(-317,4)	(-1,5)	(1,15)	(2,1)	(1,0)	(1,0)	(1,0)	(1,0)	(1,0)	(1,0)	(1,0)	(1,0)	(1,0)	(1,0)	(1,0)	
L1D 110>	(1,6)	(106,10)	(168,1)	(4,9)	(-110,1)	(-105,1)	(-123,1)	(-109,4)	(6,5)	(12,1)	(5,2)	(68,1)	(-310,1)	(88,1)	(-312,1)	(0,1)	
L1D 111>	(-111,3)	(0,3)	(3,1)	(-110,1)	(-93,1)	(-94,1)	(1,4)	(-1,2)	(6,1)	(1,0)	(1,0)	(1,0)	(1,0)	(1,0)	(1,0)	(1,0)	
L1D 112>	(-104,1)	(1,5)	(-24,1)	(-1,1)	(-78,1)	(-108,1)	(-72,1)	(-94,3)	(-164,1)	(0,1)	(1,0)	(1,0)	(1,0)	(1,0)	(1,0)	(1,0)	
L1D 113>	(-144,1)	(0,0)	(-116,0)	(-190,0)	(1,1)	(-268,0)	(-80,74)	(1,0)	(1,0)	(1,0)	(1,0)	(1,0)	(1,0)	(1,0)	(1,0)	(1,0)	
L1D 114>	(-190,6)	(-1,2)	(-130,1)	(-114,2)	(-109,2)	(-321,1)	(5,2)	(4,8)	(6,4)	(28,1)	(1,22)	(36,1)	(60,1)	(-318,1)	(-84,44)	(-86,3)	
L1D 115>	(1,5)	(8,1)	(-1,4)	(0,2)	(-118,1)	(-80,1)	(-117,1)	(200,1)	(-108,4)	(-116,1)	(1,0)	(1,0)	(1,0)	(1,0)	(1,0)	(1,0)	
L1D 116>	(0,1)	(6,1)	(8,1)	(-310,1)	(170,1)	(-116,1)	(-142,1)	(1,0)	(1,0)	(1,0)	(1,0)	(1,0)	(1,0)	(1,0)	(1,0)	(1,0)	
L1D 117>	(-85,44)	(-84,4)	(-86,2)	(-118,9)	(1,9)	(3,2)	(-1,1)	(-5,1)	(-205,2)	(-109,3)	(41,4)	(2,1)	(1,0)	(1,0)	(1,0)	(1,0)	
L1D 118>	(-124,1)	(2,1)	(1,4)	(6,6)	(4,6)	(5,2)	(52,1)	(-1,1)	(-118,6)	(-36,1)	(0,1)	(-396,1)	(72,1)	(106,1)	(-120,1)	(1,0)	
L1D 119>	(0,3)	(-89,2)	(-100,19)	(-86,15)	(-101,1)	(-99,12)	(-84,2)	(-85,2)	(2,1)	(-216,1)	(-1,2)	(24,1)	(1,9)	(-122,1)	(-194,4)	(-170,3)	
L1D 120>	(-106,1)	(4,11)	(-62,1)	(-34,1)	(1,6)	(3,4)	(16,1)	(20,2)	(275,1)	(-10,1)	(-1,1)	(-136,1)	(42,4)	(-164,1)	(-340,1)	(1,0)	
L1D 121>	(0,4)	(-124,1)	(-32,10)	(1,16)	(-426,1)	(17,1)	(1,0)	(1,0)	(1,0)	(1,0)	(1,0)	(1,0)	(1,0)	(1,0)	(1,0)	(1,0)	
L1D 122>	(-113,1)	(1,15)	(4,6)	(-322,2)	(8,1)	(2,3)	(6,4)	(72,1)	(-318,1)	(96,1)	(104,1)	(0,2)	(-6,1)	(-34,1)	(-1,1)	(-125,2)	
L1D 123>	(1,7)	(-124,10)	(-1,4)	(-14,1)	(1,0)	(1,0)	(1,0)	(1,0)	(1,0)	(1,0)	(1,0)	(1,0)	(1,0)	(1,0)	(1,0)	(1,0)	
[...]
L1D 469>	(-468,1)	(-202,5)	(1,2)	(1,0)	(1,0)	(1,0)	(1,0)	(1,0)	(1,0)	(1,0)	(1,0)	(1,0)	(1,0)	(1,0)	(1,0)	(1,0)	
L1D 470>	(2,4)	(-470,1)	(4,2)	(1,1)	(1,0)	(1,0)	(1,0)	(1,0)	(1,0)	(1,0)	(1,0)	(1,0)	(1,0)	(1,0)	(1,0)	(1,0)	
L1D 471>	(2,3)	(1,0)	(1,0)	(1,0)	(1,0)	(1,0)	(1,0)	(1,0)	(1,0)	(1,0)	(1,0)	(1,0)	(1,0)	(1,0)	(1,0)	(1,0)	
L1D 472>	(2,1)	(1,0)	(1,0)	(1,0)	(1,0)	(1,0)	(1,0)	(1,0)	(1,0)	(1,0)	(1,0)	(1,0)	(1,0)	(1,0)	(1,0)	(1,0)	
L1D 473>	(-202,3)	(1,0)	(1,0)	(1,0)	(1,0)	(1,0)	(1,0)	(1,0)	(1,0)	(1,0)	(1,0)	(1,0)	(1,0)	(1,0)	(1,0)	(1,0)	
L1D 474>	(-472,1)	(2,2)	(-474,1)	(-202,2)	(4,2)	(-437,2)	(1,0)	(1,0)	(1,0)	(1,0)	(1,0)	(1,0)	(1,0)	(1,0)	(1,0)	(1,0)	
L1D 475>	(2,3)	(-437,2)	(-474,3)	(1,0)	(1,0)	(1,0)	(1,0)	(1,0)	(1,0)	(1,0)	(1,0)	(1,0)	(1,0)	(1,0)	(1,0)	(1,0)	
L1D 476>	(1,0)	(1,0)	(1,0)	(1,0)	(1,0)	(1,0)	(1,0)	(1,0)	(1,0)	(1,0)	(1,0)	(1,0)	(1,0)	(1,0)	(1,0)	(1,0)	
L1D 477>	(2,1)	(-202,4)	(1,0)	(1,0)	(1,0)	(1,0)	(1,0)	(1,0)	(1,0)	(1,0)	(1,0)	(1,0)	(1,0)	(1,0)	(1,0)	(1,0)	
L1D 478>	(-478,1)	(2,1)	(6,1)	(4,1)	(5,1)	(-322,1)	(1,0)	(1,0)	(1,0)	(1,0)	(1,0)	(1,0)	(1,0)	(1,0)	(1,0)	(1,0)	
L1D 479>	(-482,1)	(2,1)	(-202,1)	(1,4)	(-316,1)	(1,0)	(1,0)	(1,0)	(1,0)	(1,0)	(1,0)	(1,0)	(1,0)	(1,0)	(1,0)	(1,0)	
L1D 480>	(1,0)	(1,0)	(1,0)	(1,0)	(1,0)	(1,0)	(1,0)	(1,0)	(1,0)	(1,0)	(1,0)	(1,0)	(1,0)	(1,0)	(1,0)	(1,0)	
L1D 481>	(-202,5)	(-1,1)	(1,1)	(1,0)	(1,0)	(1,0)	(1,0)	(1,0)	(1,0)	(1,0)	(1,0)	(1,0)	(1,0)	(1,0)	(1,0)	(1,0)	
L1D 482>	(-482,1)	(2,1)	(6,1)	(4,2)	(1,0)	(1,0)	(1,0)	(1,0)	(1,0)	(1,0)	(1,0)	(1,0)	(1,0)	(1,0)	(1,0)	(1,0)	
L1D 483>	(2,1)	(1,1)	(0,1)	(1,0)	(1,0)	(1,0)	(1,0)	(1,0)	(1,0)	(1,0)	(1,0)	(1,0)	(1,0)	(1,0)	(1,0)	(1,0)	
L1D 484>	(0,1)	(1,0)	(1,0)	(1,0)	(1,0)	(1,0)	(1,0)	(1,0)	(1,0)	(1,0)	(1,0)	(1,0)	(1,0)	(1,0)	(1,0)	(1,0)	
L1D 485>	(-202,3)	(1,0)	(1,0)	(1,0)	(1,0)	(1,0)	(1,0)	(1,0)	(1,0)	(1,0)	(1,0)	(1,0)	(1,0)	(1,0)	(1,0)	(1,0)	
L1D 486>	(2,1)	(1,0)	(1,0)	(1,0)	(1,0)	(1,0)	(1,0)	(1,0)	(1,0)	(1,0)	(1,0)	(1,0)	(1,0)	(1,0)	(1,0)	(1,0)	
L1D 487>	(-202,2)	(0,1)	(1,0)	(1,0)	(1,0)	(1,0)	(1,0)	(1,0)	(1,0)	(1,0)	(1,0)	(1,0)	(1,0)	(1,0)	(1,0)	(1,0)	
L1D 488>	(0,1)	(1,0)	(1,0)	(1,0)	(1,0)	(1,0)	(1,0)	(1,0)	(1,0)	(1,0)	(1,0)	(1,0)	(1,0)	(1,0)	(1,0)	(1,0)	
L1D 489>	(-202,5)	(-1,1)	(0,3)	(1,0)	(1,0)	(1,0)	(1,0)	(1,0)	(1,0)	(1,0)	(1,0)	(1,0)	(1,0)	(1,0)	(1,0)	(1,0)	
L1D 490>	(0,2)	(-488,1)	(1,0)	(1,0)	(1,0)	(1,0)	(1,0)	(1,0)	(1,0)	(1,0)	(1,0)	(1,0)	(1,0)	(1,0)	(1,0)	(1,0)	
L1D 491>	(0,3)	(1,0)	(1,0)	(1,0)	(1,0)	(1,0)	(1,0)	(1,0)	(1,0)	(1,0)	(1,0)	(1,0)	(1,0)	(1,0)	(1,0)	(1,0)	
L1D 492>	(0,3)	(1,0)	(1,0)	(1,0)	(1,0)	(1,0)	(1,0)	(1,0)	(1,0)	(1,0)	(1,0)	(1,0)	(1,0)	(1,0)	(1,0)	(1,0)	
L1D 493>	(-202,3)	(0,1)	(-491,2)	(-1,1)	(1,1)	(1,0)	(1,0)	(1,0)	(1,0)	(1,0)	(1,0)	(1,0)	(1,0)	(1,0)	(1,0)	(1,0)	
L1D 494>	(-202,1)	(0,3)	(1,0)	(1,0)	(1,0)	(1,0)	(1,0)	(1,0)	(1,0)	(1,0)	(1,0)	(1,0)	(1,0)	(1,0)	(1,0)	(1,0)	
L1D 495>	(0,3)	(1,0)	(1,0)	(1,0)	(1,0)	(1,0)	(1,0)	(1,0)	(1,0)	(1,0)	(1,0)	(1,0)	(1,0)	(1,0)	(1,0)	(1,0)	
L1D 496>	(0,2)	(-494,1)	(1,0)	(1,0)	(1,0)	(1,0)	(1,0)	(1,0)	(1,0)	(1,0)	(1,0)	(1,0)	(1,0)	(1,0)	(1,0)	(1,0)	
L1D 497>	(-202,3)	(0,3)	(1,0)	(1,0)	(1,0)	(1,0)	(1,0)	(1,0)	(1,0)	(1,0)	(1,0)	(1,0)	(1,0)	(1,0)	(1,0)	(1,0)	
L1D 498>	(0,3)	(1,0)	(1,0)	(1,0)	(1,0)	(1,0)	(1,0)	(1,0)	(1,0)	(1,0)	(1,0)	(1,0)	(1,0)	(1,0)	(1,0)	(1,0)	
L1D 499>	(0,2)	(-497,1)	(1,0)	(1,0)	(1,0)	(1,0)	(1,0)	(1,0)	(1,0)	(1,0)	(1,0)	(1,0)	(1,0)	(1,0)	(1,0)	(1,0)	
L1D 500>	(0,2)	(1,0)	(1,0)	(1,0)	(1,0)	(1,0)	(1,0)	(1,0)	(1,0)	(1,0)	(1,0)	(1,0)	(1,0)	(1,0)	(1,0)	(1,0)	
L1D 501>	(-202,1)	(1,27)	(-240,20)	(1,0)	(1,0)	(1,0)	(1,0)	(1,0)	(1,0)	(1,0)	(1,0)	(1,0)	(1,0)	(1,0)	(1,0)	(1,0)	
L1D 502>	(-202,1)	(1,3)	(1,0)	(1,0)	(1,0)	(1,0)	(1,0)	(1,0)	(1,0)	(1,0)	(1,0)	(1,0)	(1,0)	(1,0)	(1,0)	(1,0)	
L1D 503>	(1,0)	(1,0)	(1,0)	(1,0)	(1,0)	(1,0)	(1,0)	(1,0)	(1,0)	(1,0)	(1,0)	(1,0)	(1,0)	(1,0)	(1,0)	(1,0)	
L1D 504>	(1,0)	(1,0)	(1,0)	(1,0)	(1,0)	(1,0)	(1,0)	(1,0)	(1,0)	(1,0)	(1,0)	(1,0)	(1,0)	(1,0)	(1,0)	(1,0)	
L1D 505>	(-202,1)	(1,0)	(1,0)	(1,0)	(1,0)	(1,0)	(1,0)	(1,0)	(1,0)	(1,0)	(1,0)	(1,0)	(1,0)	(1,0)	(1,0)	(1,0)	
L1D 506>	(1,0)	(1,0)	(1,0)	(1,0)	(1,0)	(1,0)	(1,0)	(1,0)	(1,0)	(1,0)	(1,0)	(1,0)	(1,0)	(1,0)	(1,0)	(1,0)	
L1D 507>	(1,0)	(1,0)	(1,0)	(1,0)	(1,0)	(1,0)	(1,0)	(1,0)	(1,0)	(1,0)	(1,0)	(1,0)	(1,0)	(1,0)	(1,0)	(1,0)	
L1D 508>	(1,0)	(1,0)	(1,0)	(1,0)	(1,0)	(1,0)	(1,0)	(1,0)	(1,0)	(1,0)	(1,0)	(1,0)	(1,0)	(1,0)	(1,0)	(1,0)	
L1D 509>	(1,0)	(1,0)	(1,0)	(1,0)	(1,0)	(1,0)	(1,0)	(1,0)	(1,0)	(1,0)	(1,0)	(1,0)	(1,0)	(1,0)	(1,0)	(1,0)	
L1D 510>	(1,0)	(1,0)	(1,0)	(1,0)	(1,0)	(1,0)	(1,0)	(1,0)	(1,0)	(1,0)	(1,0)	(1,0)	(1,0)	(1,0)	(1,0)	(1,0)	
L1D 511>	(1,0)	(1,0)	(1,0)	(1,0)	(1,0)	(1,0)	(1,0)	(1,0)	(1,0)	(1,0)	(1,0)	(1,0)	(1,0)	(1,0)	(1,0)	(1,0)	

L2C -64>	(1,211)	(-25,110)	(25,11)	(-6,31)	(17,7)	(-8,17)	(-7,9)	(-39,9)	(26,13)	(53,1)	(-30,56)	(-1,16)	(-5,38)	(-2,5)	(-28,5)	(-26,16)	
L2C -63>	(1,53)	(62,1)	(41,1)	(1,0)	(1,0)	(1,0)	(1,0)	(1,0)	(1,0)	(1,0)	(1,0)	(1,0)	(1,0)	(1,0)	(1,0)	(1,0)	
L2C -62>	(1,5)	(45,1)	(63,1)	(20,1)	(1,0)	(1,0)	(1,0)	(1,0)	(1,0)	(1,0)	(1,0)	(1,0)	(1,0)	(1,0)	(1,0)	(1,0)	
L2C -61>	(1,5)	(11,2)	(57,1)	(1,0)	(1,0)	(1,0)	(1,0)	(1,0)	(1,0)	(1,0)	(1,0)	(1,0)	(1,0)	(1,0)	(1,0)	(1,0)	
L2C -60>	(27,1)	(1,1)	(6,2)	(1,0)	(1,0)	(1,0)	(1,0)	(1,0)	(1,0)	(1,0)	(1,0)	(1,0)	(1,0)	(1,0)	(1,0)	(1,0)	
L2C -59>	(1,6)	(41,1)	(20,1)	(1,0)	(1,0)	(1,0)	(1,0)	(1,0)	(1,0)	(1,0)	(1,0)	(1,0)	(1,0)	(1,0)	(1,0)	(1,0)	
L2C -58>	(15,1)	(1,0)	(1,0)	(1,0)	(1,0)	(1,0)	(1,0)	(1,0)	(1,0)	(1,0)	(1,0)	(1,0)	(1,0)	(1,0)	(1,0)	(1,0)	
L2C -57>	(1,6)	(1,0)	(1,0)	(1,0)	(1,0)	(1,0)	(1,0)	(1,0)	(1,0)	(1,0)	(1,0)	(1,0)	(1,0)	(1,0)	(1,0)	(1,0)	
L2C -56>	(16,1)	(1,1)	(45,1)	(1,0)	(1,0)	(1,0)	(1,0)	(1,0)	(1,0)	(1,0)	(1,0)	(1,0)	(1,0)	(1,0)	(1,0)	(1,0)	
L2C -55>	(1,7)	(27,1)	(26,1)	(-2,1)	(45,1)	(2,1)	(1,0)	(1,0)	(1,0)	(1,0)	(1,0)	(1,0)	(1,0)	(1,0)	(1,0)	(1,0)	
L2C -54>	(1,3)	(10,1)	(25,1)	(40,2)	(36,1)	(35,2)	(11,1)	(1,0)	(1,0)	(1,0)	(1,0)	(1,0)	(1,0)	(1,0)	(1,0)	(1,0)	
L2C -53>	(25,2)	(28,1)	(14,4)	(1,9)	(0,1)	(54,2)	(3,2)	(26,1)	(27,4)	(1,0)	(1,0)	(1,0)	(1,0)	(1,0)	(1,0)	(1,0)	
L2C -52>	(1,10)	(48,1)	(25,1)	(53,2)	(18,1)	(1,0)	(1,0)	(1,0)	(1,0)	(1,0)	(1,0)	(1,0)	(1,0)	(1,0)	(1,0)	(1,0)	
L2C -51>	(52,3)	(25,1)	(49,1)	(58,2)	(1,3)	(4,1)	(1,0)	(1,0)	(1,0)	(1,0)	(1,0)	(1,0)	(1,0)	(1,0)	(1,0)	(1,0)	
L2C -50>	(1,7)	(25,4)	(17,1)	(57,1)	(38,1)	(27,1)	(12,1)	(1,0)	(1,0)	(1,0)	(1,0)	(1,0)	(1,0)	(1,0)	(1,0)	(1,0)	
L2C -49>	(1,25)	(25,152)	(50,9)	(26,1)	(42,1)	(41,1)	(1,0)	(1,0)	(1,0)	(1,0)	(1,0)	(1,0)	(1,0)	(1,0)	(1,0)	(1,0)	
L2C -48>	(1,13)	(50,1)	(25,3)	(47,4)	(46,2)	(44,1)	(6,2)	(35,1)	(12,1)	(0,1)	(31,1)	(-1,1)	(1,0)	(1,0)	(1,0)	(1,0)	
L2C -47>	(1,13)	(43,1)	(48,3)	(46,1)	(58,1)	(18,7)	(9,1)	(39,1)	(31,1)	(1,0)	(1,0)	(1,0)	(1,0)	(1,0)	(1,0)	(1,0)	
L2C -46>	(23,3)	(3,2)	(1,12)	(-3,1)	(-1,3)	(0,1)	(24,1)	(28,2)	(31,1)	(18,2)	(2,1)	(1,0)	(1,0)	(1,0)	(1,0)	(1,0)	
L2C -45>	(21,4)	(46,2)	(1,8)	(22,1)	(13,1)	(-9,1)	(25,1)	(26,1)	(1,0)	(1,0)	(1,0)	(1,0)	(1,0)	(1,0)	(1,0)	(1,0)	
L2C -44>	(1,19)	(61,1)	(8,1)	(45,2)	(17,2)	(-14,1)	(30,1)	(2,1)	(1,0)	(1,0)	(1,0)	(1,0)	(1,0)	(1,0)	(1,0)	(1,0)	
L2C -43>	(1,20)	(33,1)	(37,1)	(44,5)	(2,1)	(41,1)	(26,1)	(15,1)	(1,0)	(1,0)	(1,0)	(1,0)	(1,0)	(1,0)	(1,0)	(1,0)	
L2C -42>	(1,5)	(2,1)	(35,1)	(8,1)	(40,1)	(33,1)	(18,12)	(-18,7)	(42,2)	(15,1)	(31,1)	(6,1)	(25,1)	(7,1)	(1,0)	(1,0)	
L2C -41>	(1,17)	(42,2)	(-5,1)	(40,1)	(59,1)	(24,1)	(26,1)	(18,1)	(-4,2)	(1,0)	(1,0)	(1,0)	(1,0)	(1,0)	(1,0)	(1,0)	
L2C -40>	(1,20)	(48,1)	(14,2)	(25,1)	(26,1)	(2,1)	(-13,1)	(1,0)	(1,0)	(1,0)	(1,0)	(1,0)	(1,0)	(1,0)	(1,0)	(1,0)	
L2C -39>	(40,17)	(-2,1)	(23,5)	(1,15)	(21,2)	(13,8)	(-13,3)	(27,5)	(46,1)	(-5,1)	(-1,1)	(-16,1)	(42,1)	(31,3)	(49,1)	(0,1)	
L2C -38>	(1,19)	(-16,1)	(21,1)	(29,1)	(14,1)	(-4,1)	(2,1)	(-6,1)	(40,1)	(-18,1)	(1,0)	(1,0)	(1,0)	(1,0)	(1,0)	(1,0)	
L2C -37>	(-1,1)	(22,1)	(1,19)	(26,2)	(60,1)	(36,1)	(12,1)	(18,1)	(21,1)	(1,0)	(1,0)	(1,0)	(1,0)	(1,0)	(1,0)	(1,0)	
L2C -36>	(30,2)	(1,15)	(47,1)	(25,2)	(-3,1)	(-26,1)	(3,1)	(16,1)	(17,1)	(37,1)	(-4,1)	(1,0)	(1,0)	(1,0)	(1,0)	(1,0)	
L2C -35>	(1,15)	(10,1)	(31,1)	(30,1)	(1,0)	(1,0)	(1,0)	(1,0)	(1,0)	(1,0)	(1,0)	(1,0)	(1,0)	(1,0)	(1,0)	(1,0)	
L2C -34>	(1,13)	(2,1)	(29,1)	(0,1)	(18,1)	(3,1)	(33,3)	(6,1)	(41,1)	(1,0)	(1,0)	(1,0)	(1,0)	(1,0)	(1,0)	(1,0)	
L2C -33>	(1,16)	(2,2)	(-7,1)	(13,1)	(11,1)	(50,3)	(3,1)	(20,1)	(35,1)	(37,1)	(1,0)	(1,0)	(1,0)	(1,0)	(1,0)	(1,0)	
L2C -32>	(2,2)	(1,17)	(22,1)	(27,1)	(-22,1)	(24,1)	(-25,1)	(33,4)	(-23,1)	(1,0)	(1,0)	(1,0)	(1,0)	(1,0)	(1,0)	(1,0)	
L2C -31>	(1,8)	(26,3)	(-7,1)	(25,1)	(32,1)	(4,1)	(27,1)	(13,1)	(42,1)	(16,2)	(38,1)	(14,1)	(2,1)	(30,1)	(-2,1)	(50,1)	
L2C -30>	(1,34)	(-26,1)	(30,1)	(6,1)	(32,1)	(-20,1)	(-25,12)	(50,2)	(8,1)	(21,1)	(7,1)	(-4,1)	(54,1)	(3,1)	(37,1)	(1,0)	
L2C -29>	(1,39)	(38,1)	(50,1)	(-14,1)	(25,4)	(-3,1)	(13,1)	(-2,1)	(-23,1)	(-19,1)	(-25,2)	(30,1)	(40,1)	(28,1)	(31,1)	(2,1)	
L2C -28>	(1,32)	(13,1)	(25,1)	(12,2)	(6,2)	(10,1)	(2,1)	(-25,6)	(29,2)	(-22,2)	(-14,3)	(33,3)	(-4,1)	(24,1)	(20,1)	(19,1)	
L2C -27>	(1,21)	(14,2)	(28,2)	(-4,2)	(25,3)	(-26,2)	(-25,1)	(8,1)	(-1,2)	(-3,2)	(19,2)	(26,2)	(31,1)	(36,3)	(1,0)	(1,0)	
L2C -26>	(1,41)	(-1,1)	(27,9)	(-26,4)	(40,2)	(-13,13)	(13,9)	(-25,3)	(6,1)	(2,6)	(50,1)	(5,1)	(19,2)	(-3,5)	(28,1)	(9,1)	
L2C -25>	(1,53)	(26,148)	(40,2)	(12,2)	(51,3)	(2,2)	(-1,1)	(47,1)	(0,1)	(25,2)	(-25,17)	(-24,1)	(-27,1)	(57,1)	(18,1)	(9,1)	
L2C -24>	(-18,9)	(1,28)	(28,1)	(-24,4)	(25,154)	(-13,1)	(-38,1)	(26,2)	(-25,1)	(7,1)	(6,2)	(-6,3)	(22,1)	(3,1)	(18,5)	(-7,1)	
L2C -23>	(2,3)	(1,15)	(40,1)	(24,2)	(-24,1)	(25,1)	(-18,1)	(-2,2)	(26,1)	(43,1)	(-1,3)	(11,1)	(15,1)	(-28,1)	(8,1)	(6,1)	
L2C -22>	(1,11)	(23,1)	(14,1)	(-25,2)	(13,1)	(-1,2)	(-21,2)	(57,1)	(2,1)	(18,2)	(5,1)	(-2,1)	(-3,1)	(1,0)	(1,0)	(1,0)	
L2C -21>	(19,1)	(1,24)	(4,1)	(-4,1)	(46,2)	(22,2)	(-25,2)	(-23,1)	(26,2)	(-7,1)	(11,1)	(3,1)	(52,1)	(12,1)	(-27,1)	(24,1)	
L2C -20>	(1,17)	(21,3)	(-7,1)	(33,5)	(27,1)	(-2,1)	(18,1)	(-9,1)	(-16,1)	(1,0)	(1,0)	(1,0)	(1,0)	(1,0)	(1,0)	(1,0)	
L2C -19>	(1,11)	(-14,2)	(46,1)	(3,2)	(11,1)	(20,1)	(41,1)	(2,1)	(-25,1)	(12,1)	(27,1)	(14,1)	(15,1)	(9,1)	(18,1)	(35,1)	
L2C -18>	(1,17)	(-9,1)	(25,1)	(6,5)	(-34,1)	(-13,1)	(18,1)	(12,1)	(13,7)	(60,5)	(31,3)	(2,1)	(19,4)	(15,1)	(-7,2)	(20,1)	
L2C -17>	(1,14)	(-13,2)	(-23,1)	(13,1)	(-2,2)	(9,1)	(42,1)	(-24,1)	(12,1)	(21,1)	(4,1)	(14,1)	(-28,1)	(18,1)	(6,1)	(2,1)	
L2C -16>	(-3,1)	(1,21)	(-2,1)	(-23,1)	(13,1)	(-25,2)	(-15,1)	(4,1)	(25,1)	(-28,1)	(17,1)	(-1,2)	(2,1)	(-10,1)	(-14,1)	(18,1)	
L2C -15>	(1,17)	(-11,1)	(-2,4)	(16,4)	(22,1)	(42,1)	(17,1)	(28,1)	(-1,1)	(-10,1)	(11,2)	(6,2)	(-9,1)	(19,1)	(50,1)	(2,2)	
L2C -14>	(1,21)	(-42,1)	(-14,1)	(15,2)	(6,1)	(7,2)	(-2,1)	(3,3)	(4,1)	(-6,1)	(19,2)	(23,2)	(11,3)	(-3,2)	(13,1)	(-7,1)	
L2C -13>	(-3,5)	(1,30)	(14,10)	(-12,5)	(0,1)	(26,6)	(38,3)	(25,1)	(-15,1)	(40,13)	(23,1)	(-13,10)	(27,7)	(53,3)	(-26,2)	(-35,1)	
L2C -12>	(24,1)	(1,27)	(-13,7)	(-12,2)	(37,1)	(13,6)	(5,3)	(8,1)	(4,4)	(-43,1)	(11,2)	(-3,2)	(-51,1)	(10,1)	(28,1)	(40,1)	
L2C -11>	(1,32)	(12,3)	(21,1)	(5,1)	(-52,1)	(-12,1)	(-38,1)	(3,2)	(-26,2)	(2,5)	(-1,1)	(26,1)	(7,1)	(-3,2)	(48,1)	(41,1)	
L2C -10>	(1,35)	(8,2)	(-12,1)	(2,1)	(7,1)	(-4,1)	(-29,4)	(-16,1)	(11,3)	(-11,1)	(-23,1)	(-2,1)	(17,2)	(10,1)	(-8,7)	(28,2)	
L2C -9>	(30,1)	(4,8)	(5,1)	(-46,1)	(1,41)	(-30,1)	(26,1)	(8,1)	(10,3)	(17,1)	(-12,2)	(3,3)	(-11,1)	(-1,2)	(-2,1)	(-22,2)	
L2C -8>	(-1,5)	(1,59)	(9,4)	(23,1)	(13,1)	(-25,2)	(6,3)	(2,5)	(-12,2)	(31,1)	(-2,3)	(-9,1)	(-8,3)	(4,6)	(-30,1)	(10,1)	
L2C -7>	(-1,4)	(8,3)	(-2,5)	(10,1)	(1,53)	(0,1)	(-4,6)	(4,2)	(16,1)	(-6,1)	(-8,2)	(-11,1)	(2,4)	(27,1)	(-55,1)	(-31,1)	
L2C -6>	(7,8)	(-1,15)	(-2,11)	(14,3)	(-3,2)	(18,2)	(1,54)	(-5,4)	(-25,2)	(-18,1)	(2,5)	(41,3)	(-47,1)	(-37,3)	(15,1)	(-20,1)	
L2C -5>	(-1,7)	(-5,10)	(1,82)	(-2,2)	(0,21)	(-4,6)	(3,12)	(6,3)	(4,5)	(2,11)	(-3,1)	(40,1)	(41,1)	(-47,1)	(18,1)	(-14,1)	
L2C -4>	(-1,13)	(2,8)	(1,67)	(5,10)	(6,3)	(-4,5)	(0,6)	(-2,1)	(3,4)	(9,1)	(-41,1)	(23,1)	(-33,1)	(-54,1)	(37,1)	(14,1)	
L2C -3>	(-1,15)	(1,64)	(2,3)	(4,23)	(3,2)	(-48,1)	(-3,22)	(-4,9)	(-6,2)	(40,1)	(-23,1)	(15,1)	(-2,2)	(20,1)	(5,2)	(-25,2)	
L2C -2>	(-1,32)	(-2,11)	(1,56)	(-8,2)	(-3,9)	(-26,2)	(3,14)	(4,4)	(0,2)	(10,3)	(6,2)	(7,2)	(11,2)	(9,3)	(-28,1)	(-13,1)	
L2C -1>	(-1,169)	(18,3)	(-2,40)	(-3,16)	(4,5)	(3,11)	(-4,3)	(20,3)	(-18,1)	(17,2)	(52,1)	(46,1)	(1,49)	(2,75)	(7,1)	(-11,1)	
L2C 0>	(0,111)	(1,21)	(-38,1)	(2,2)	(-10,1)	(11,1)	(-3,3)	(-24,2)	(5,1)	(-37,1)	(-9,1)	(-30,1)	(3,2)	(30,1)	(-1,9)	(-25,1)	
L2C 1>	(1,188)	(-4,3)	(-17,1)	(-6,6)	(-8,3)	(-5,5)	(-10,2)	(3,4)	(11,2)	(-3,1)	(-9,2)	(-35,1)	(-7,8)	(6,2)	(2,11)	(-2,1)	
L2C 2>	(3,64)	(-1,12)	(-2,2)	(1,130)	(2,22)	(-4,1)	(4,0)	(25,2)	(9,1)	(-6,1)	(-3,1)	(-12,3)	(-5,2)	(-20,1)	(8,1)	(5,1)	
L2C 3>	(1,155)	(-1,16)	(4,5)	(2,140)	(-2,11)	(21,2)	(-20,1)	(-29,2)	(8,4)	(-15,1)	(-4,5)	(-49,1)	(-47,1)	(-12,2)	(5,4)	(-13,4)	
L2C 4>	(-1,8)	(1,105)	(15,3)	(-19,1)	(-2,6)	(8,3)	(-3,11)	(-15,2)	(25,1)	(-4,2)	(2,7)	(6,2)	(3,3)	(35,1)	(12,1)	(-16,2)	
L2C 5>	(2,3)	(1,68)	(-4,6)	(-1,7)	(5,1)	(-37,1)	(-3,3)	(52,1)	(6,7)	(-10,2)	(-7,1)	(13,1)	(-6,1)	(-19,1)	(4,1)	(12,2)	
L2C 6>	(1,51)	(43,2)	(6,38)	(-5,8)	(5,12)	(0,3)	(2,5)	(-2,1)	(-9,2)	(25,3)	(42,1)	(4,1)	(-11,5)	(-10,1)	(30,1)	(-8,2)	
L2C 7>	(1,38)	(-8,2)	(4,2)	(23,1)	(6,2)	(-25,1)	(40,1)	(2,7)	(18,1)	(-13,2)	(-11,2)	(-30,1)	(12,1)	(-19,1)	(-6,2)	(-10,1)	
L2C 8>	(1,45)	(-5,2)	(-6,3)	(6,2)	(-7,4)	(2,4)	(-4,3)	(-1,2)	(5,1)	(-26,1)	(18,1)	(20,2)	(-13,1)	(-10,1)	(-11,2)	(-3,2)	
L2C 9>	(-24,2)	(1,29)	(13,2)	(-1,2)	(4,1)	(6,3)	(2,2)	(38,1)	(21,1)	(-9,1)	(-17,2)	(-3,2)	(18,1)	(-34,1)	(-11,2)	(-59,1)	
L2C 10>	(1,22)	(-6,2)	(5,1)	(-7,1)	(-11,2)	(13,3)	(-14,1)	(-3,2)	(-9,7)	(-17,1)	(12,1)	(2,4)	(-13,1)	(21,2)	(3,1)	(6,1)	
L2C 11>	(1,23)	(24,1)	(0,1)	(4,1)	(6,2)	(-25,1)	(-4,2)	(2,2)	(-10,5)	(-43,1)	(-1,1)	(-18,2)	(32,1)	(-2,1)	(5,1)	(-3,1)	
L2C 12>	(6,6)	(1,21)	(-7,4)	(-11,10)	(-26,1)	(14,1)	(-1,1)	(-37,1)	(-13,1)	(-43,2)	(2,4)	(-34,1)	(-2,1)	(-18,1)	(-16,1)	(8,1)	
L2C 13>	(1,17)	(-12,7)	(-26,5)	(-39,15)	(-53,4)	(40,9)	(13,4)	(3,2)	(14,2)	(2,2)	(-2,2)	(18,8)	(16,1)	(34,1)	(17,1)	(11,1)	
L2C 14>	(1,17)	(17,1)	(12,1)	(-13,11)	(-12,2)	(-27,2)	(14,1)	(27,5)	(-26,1)	(-6,1)	(-21,2)	(4,2)	(-52,2)	(40,1)	(31,1)	(22,1)	
L2C 15>	(-18,4)	(1,23)	(-39,1)	(14,1)	(-14,3)	(-24,1)	(13,1)	(2,1)	(26,1)	(-11,1)	(-28,1)	(-1,4)	(5,1)	(7,1)	(-10,3)	(6,1)	
L2C 16>	(-3,1)	(1,21)	(-20,1)	(-14,1)	(8,1)	(-4,1)	(-23,1)	(2,1)	(16,1)	(6,2)	(-15,5)	(-28,2)	(-10,1)	(-40,1)	(1,0)	(1,0)	
L2C 17>	(-9,2)	(-39,4)	(1,18)	(-21,3)	(-16,2)	(-38,1)	(-43,1)	(-20,1)	(7,2)	(2,2)	(-5,1)	(11,1)	(-56,1)	(18,2)	(4,1)	(-24,1)	
L2C 18>	(1,17)	(-42,22)	(-41,1)	(-40,1)	(8,2)	(-4,1)	(-44,1)	(16,1)	(6,2)	(28,1)	(18,41)	(-24,17)	(2,3)	(-10,3)	(-6,11)	(3,3)	
L2C 19>	(4,1)	(1,11)	(-49,1)	(-1,2)	(-18,5)	(8,1)	(3,1)	(-6,1)	(6,1)	(-46,1)	(-39,1)	(18,1)	(-61,1)	(1,0)	(1,0)	(1,0)	
L2C 20>	(-1,3)	(1,18)	(-3,2)	(3,1)	(-18,1)	(9,1)	(6,1)	(0,1)	(-32,1)	(-27,1)	(18,2)	(-46,1)	(1,0)	(1,0)	(1,0)	(1,0)	
L2C 21>	(1,26)	(25,3)	(5,1)	(-45,1)	(-20,3)	(2,2)	(-27,1)	(-44,1)	(-23,1)	(-28,1)	(27,1)	(0,1)	(-2,2)	(-47,1)	(-29,1)	(-3,1)	
L2C 22>	(1,23)	(-21,7)	(-23,1)	(-25,1)	(3,1)	(12,1)	(-26,1)	(-19,1)	(-3,1)	(10,1)	(-33,1)	(2,1)	(14,1)	(1,0)	(1,0)	(1,0)	
L2C 23>	(17,4)	(1,21)	(-9,1)	(19,1)	(-10,1)	(-16,1)	(-3,1)	(4,1)	(3,1)	(-22,1)	(-28,4)	(2,2)	(-13,1)	(-25,1)	(36,1)	(1,0)	
L2C 24>	(-46,1)	(-45,1)	(1,11)	(-26,1)	(-15,1)	(-1,1)	(-2,1)	(-29,1)	(3,1)	(2,2)	(18,4)	(-13,1)	(28,1)	(-19,1)	(1,0)	(1,0)	
L2C 25>	(1,36)	(-22,3)	(25,151)	(-49,150)	(-24,87)	(-16,1)	(-54,1)	(-40,1)	(26,1)	(-62,1)	(-59,1)	(-26,4)	(-23,1)	(-19,1)	(-34,2)	(18,1)	
L2C 26>	(1,58)	(-21,2)	(-25,119)	(-4,2)	(-12,6)	(-28,1)	(-26,5)	(22,3)	(21,2)	(-52,2)	(-53,3)	(-50,1)	(-1,1)	(-39,1)	(-49,1)	(-47,1)	
L2C 27>	(1,30)	(-26,6)	(13,13)	(-40,2)	(-13,6)	(-7,2)	(-25,1)	(-12,1)	(-20,1)	(7,1)	(28,1)	(8,2)	(6,2)	(-33,1)	(1,0)	(1,0)	
L2C 28>	(1,24)	(-14,1)	(-27,1)	(-17,1)	(20,1)	(-48,2)	(-41,1)	(3,1)	(2,2)	(-42,1)	(12,1)	(-3,3)	(-28,1)	(-57,1)	(-4,1)	(-25,1)	
L2C 29>	(1,10)	(-31,1)	(-28,1)	(5,1)	(26,1)	(-4,2)	(-52,1)	(2,1)	(-62,1)	(1,0)	(1,0)	(1,0)	(1,0)	(1,0)	(1,0)	(1,0)	
L2C 30>	(-29,3)	(1,8)	(2,6)	(-5,1)	(-12,1)	(-44,1)	(-35,1)	(21,1)	(-27,1)	(-38,1)	(1,0)	(1,0)	(1,0)	(1,0)	(1,0)	(1,0)	
L2C 31>	(1,5)	(-57,2)	(-28,2)	(11,1)	(-43,1)	(-4,5)	(18,2)	(-37,1)	(-42,1)	(13,1)	(-30,1)	(4,1)	(-2,1)	(-39,1)	(29,1)	(5,1)	
L2C 32>	(1,10)	(21,1)	(17,1)	(-4,2)	(-6,1)	(-2,1)	(-27,1)	(1,0)	(1,0)	(1,0)	(1,0)	(1,0)	(1,0)	(1,0)	(1,0)	(1,0)	
L2C 33>	(1,13)	(-19,1)	(-1,1)	(3,1)	(6,4)	(-32,3)	(-21,3)	(-20,1)	(-26,1)	(-7,1)	(1,0)	(1,0)	(1,0)	(1,0)	(1,0)	(1,0)	
L2C 34>	(-19,1)	(6,1)	(1,5)	(-37,1)	(-36,1)	(3,1)	(-39,1)	(-29,1)	(-25,3)	(-2,1)	(1,0)	(1,0)	(1,0)	(1,0)	(1,0)	(1,0)	
L2C 35>	(1,7)	(3,1)	(-47,1)	(2,2)	(-34,1)	(-29,2)	(1,0)	(1,0)	(1,0)	(1,0)	(1,0)	(1,0)	(1,0)	(1,0)	(1,0)	(1,0)	
L2C 36>	(3,1)	(7,1)	(13,1)	(-43,1)	(1,5)	(-28,2)	(18,2)	(-24,1)	(-18,1)	(1,0)	(1,0)	(1,0)	(1,0)	(1,0)	(1,0)	(1,0)	
L2C 37>	(1,11)	(-12,1)	(-36,2)	(-5,1)	(-43,1)	(-1,1)	(1,0)	(1,0)	(1,0)	(1,0)	(1,0)	(1,0)	(1,0)	(1,0)	(1,0)	(1,0)	
L2C 38>	(-37,1)	(-12,3)	(-24,1)	(-6,1)	(1,4)	(4,1)	(-41,1)	(6,1)	(-4,1)	(2,1)	(-3,1)	(1,0)	(1,0)	(1,0)	(1,0)	(1,0)	
L2C 39>	(-13,1)	(1,4)	(-53,1)	(4,1)	(-9,1)	(-44,2)	(2,1)	(12,1)	(-3,1)	(1,0)	(1,0)	(1,0)	(1,0)	(1,0)	(1,0)	(1,0)	
L2C 40>	(-39,17)	(-16,4)	(13,2)	(-26,18)	(-13,3)	(2,2)	(1,5)	(-1,1)	(-8,1)	(-53,3)	(3,1)	(-19,1)	(14,1)	(5,1)	(-34,1)	(1,0)	
L2C 41>	(1,10)	(0,1)	(-8,1)	(-52,1)	(14,1)	(-27,1)	(-12,1)	(-24,1)	(-2,2)	(2,1)	(1,0)	(1,0)	(1,0)	(1,0)	(1,0)	(1,0)	
L2C 42>	(-46,2)	(1,5)	(-16,1)	(-10,2)	(-2,1)	(8,1)	(-1,1)	(1,0)	(1,0)	(1,0)	(1,0)	(1,0)	(1,0)	(1,0)	(1,0)	(1,0)	
L2C 43>	(-42,1)	(1,1)	(-24,2)	(13,1)	(-41,1)	(1,0)	(1,0)	(1,0)	(1,0)	(1,0)	(1,0)	(1,0)	(1,0)	(1,0)	(1,0)	(1,0)	
L2C 44>	(-5,1)	(1,5)	(-48,1)	(-43,5)	(-3,1)	(-14,1)	(1,0)	(1,0)	(1,0)	(1,0)	(1,0)	(1,0)	(1,0)	(1,0)	(1,0)	(1,0)	
L2C 45>	(-21,1)	(1,2)	(-44,2)	(-25,2)	(12,1)	(-27,1)	(1,0)	(1,0)	(1,0)	(1,0)	(1,0)	(1,0)	(1,0)	(1,0)	(1,0)	(1,0)	
L2C 46>	(-45,5)	(-22,1)	(-24,1)	(1,6)	(-26,1)	(-1,1)	(2,1)	(3,1)	(-28,1)	(-41,1)	(-39,1)	(1,0)	(1,0)	(1,0)	(1,0)	(1,0)	
L2C 47>	(-21,1)	(1,7)	(-1,1)	(-50,1)	(-28,1)	(1,0)	(1,0)	(1,0)	(1,0)	(1,0)	(1,0)	(1,0)	(1,0)	(1,0)	(1,0)	(1,0)	
L2C 48>	(-47,3)	(-2,2)	(1,2)	(-55,1)	(-28,1)	(-48,1)	(-5,1)	(1,0)	(1,0)	(1,0)	(1,0)	(1,0)	(1,0)	(1,0)	(1,0)	(1,0)	
L2C 49>	(1,3)	(-48,1)	(2,1)	(1,0)	(1,0)	(1,0)	(1,0)	(1,0)	(1,0)	(1,0)	(1,0)	(1,0)	(1,0)	(1,0)	(1,0)	(1,0)	
L2C 50>	(-49,21)	(-25,1)	(1,8)	(-24,1)	(-28,3)	(-27,1)	(1,0)	(1,0)	(1,0)	(1,0)	(1,0)	(1,0)	(1,0)	(1,0)	(1,0)	(1,0)	
L2C 51>	(1,22)	(-25,4)	(-51,2)	(-31,1)	(-28,2)	(-12,1)	(-50,1)	(1,0)	(1,0)	(1,0)	(1,0)	(1,0)	(1,0)	(1,0)	(1,0)	(1,0)	
L2C 52>	(2,1)	(1,10)	(-51,1)	(-38,1)	(1,0)	(1,0)	(1,0)	(1,0)	(1,0)	(1,0)	(1,0)	(1,0)	(1,0)	(1,0)	(1,0)	(1,0)	
L2C 53>	(-13,3)	(-34,1)	(1,2)	(-4,1)	(-25,1)	(1,0)	(1,0)	(1,0)	(1,0)	(1,0)	(1,0)	(1,0)	(1,0)	(1,0)	(1,0)	(1,0)	
L2C 54>	(1,5)	(-60,1)	(1,0)	(1,0)	(1,0)	(1,0)	(1,0)	(1,0)	(1,0)	(1,0)	(1,0)	(1,0)	(1,0)	(1,0)	(1,0)	(1,0)	
L2C 55>	(1,2)	(-12,1)	(-13,1)	(1,0)	(1,0)	(1,0)	(1,0)	(1,0)	(1,0)	(1,0)	(1,0)	(1,0)	(1,0)	(1,0)	(1,0)	(1,0)	
L2C 56>	(-25,1)	(-61,1)	(1,1)	(1,0)	(1,0)	(1,0)	(1,0)	(1,0)	(1,0)	(1,0)	(1,0)	(1,0)	(1,0)	(1,0)	(1,0)	(1,0)	
L2C 57>	(1,2)	(-2,1)	(2,1)	(-5,1)	(-47,1)	(1,0)	(1,0)	(1,0)	(1,0)	(1,0)	(1,0)	(1,0)	(1,0)	(1,0)	(1,0)	(1,0)	
L2C 58>	(1,1)	(-36,2)	(-50,1)	(1,0)	(1,0)	(1,0)	(1,0)	(1,0)	(1,0)	(1,0)	(1,0)	(1,0)	(1,0)	(1,0)	(1,0)	(1,0)	
L2C 59>	(1,1)	(1,0)	(1,0)	(1,0)	(1,0)	(1,0)	(1,0)	(1,0)	(1,0)	(1,0)	(1,0)	(1,0)	(1,0)	(1,0)	(1,0)	(1,0)	
L2C 60>	(-40,1)	(1,1)	(-47,4)	(-11,1)	(1,0)	(1,0)	(1,0)	(1,0)	(1,0)	(1,0)	(1,0)	(1,0)	(1,0)	(1,0)	(1,0)	(1,0)	
L2C 61>	(-3,2)	(-7,1)	(1,1)	(1,0)	(1,0)	(1,0)	(1,0)	(1,0)	(1,0)	(1,0)	(1,0)	(1,0)	(1,0)	(1,0)	(1,0)	(1,0)	
L2C 62>	(-12,1)	(-8,1)	(1,0)	(1,0)	(1,0)	(1,0)	(1,0)	(1,0)	(1,0)	(1,0)	(1,0)	(1,0)	(1,0)	(1,0)	(1,0)	(1,0)	
L2C 63>	(-5,1)	(1,0)	(1,0)	(1,0)	(1,0)	(1,0)	(1,0)	(1,0)	(1,0)	(1,0)	(1,0)	(1,0)	(1,0)	(1,0)	(1,0)	(1,0)	

DRAM Statistics
 CHANNEL 0
 RQ ROW_BUFFER_HIT:      21811  ROW_BUFFER_MISS:      56625
 DBUS_CONGESTED:     143461
 WQ ROW_BUFFER_HIT:      21846  ROW_BUFFER_MISS:      56552  FULL:          0

 AVG_CONGESTED_CYCLE: 6
