
*** ChampSim Multicore Out-of-Order Simulator ***

Warmup Instructions: 1000000
Simulation Instructions: 10000000
Number of CPUs: 1
LLC sets: 2048
LLC ways: 16
Off-chip DRAM Size: 4096 MB Channels: 1 Width: 64-bit Data Rate: 3200 MT/s

CPU 0 runs /home/aniket/Desktop/sem/cs622/cs622-project/champsim/dpc3_traces/628.pop2_s-17B.champsimtrace.xz
Ultra pref. initializing...
Ultra pref. initialized
Ultra pref. initializing...
Ultra pref. initialized

Warmup complete CPU 0 instructions: 1000002 cycles: 443673 (Simulation time: 0 hr 0 min 2 sec) 

Heartbeat CPU 0 instructions: 10000002 cycles: 7368794 heartbeat IPC: 1.35707 cumulative IPC: 1.29962 (Simulation time: 0 hr 0 min 21 sec) 
Finished CPU 0 instructions: 10000001 cycles: 7684906 cumulative IPC: 1.30125 (Simulation time: 0 hr 0 min 23 sec) 

CPU 0 Branch Prediction Accuracy: 97.0058% MPKI: 3.1961 Average ROB Occupancy at Mispredict: 178.104

ChampSim completed all CPUs

Region of Interest Statistics

CPU 0 cumulative IPC: 1.30125 instructions: 10000001 cycles: 7684906
L1D TOTAL     ACCESS:    4567107  HIT:    4318091  MISS:     249016
L1D LOAD      ACCESS:    1470732  HIT:    1440650  MISS:      30082
L1D RFO       ACCESS:     618117  HIT:     562566  MISS:      55551
L1D PREFETCH  ACCESS:    2478258  HIT:    2314875  MISS:     163383
L1D WRITEBACK ACCESS:          0  HIT:          0  MISS:          0
L1D PREFETCH  REQUESTED:   40085401  ISSUED:   13396673  USEFUL:     142939  USELESS:      38518
L1D AVERAGE MISS LATENCY: 62397.3 cycles
L1I TOTAL     ACCESS:    1977768  HIT:    1965953  MISS:      11815
L1I LOAD      ACCESS:    1977768  HIT:    1965953  MISS:      11815
L1I RFO       ACCESS:          0  HIT:          0  MISS:          0
L1I PREFETCH  ACCESS:          0  HIT:          0  MISS:          0
L1I WRITEBACK ACCESS:          0  HIT:          0  MISS:          0
L1I PREFETCH  REQUESTED:          0  ISSUED:          0  USEFUL:          0  USELESS:          0
L1I AVERAGE MISS LATENCY: 23.0199 cycles
L2C TOTAL     ACCESS:    1247036  HIT:    1089876  MISS:     157160
L2C LOAD      ACCESS:      38366  HIT:      26840  MISS:      11526
L2C RFO       ACCESS:      55537  HIT:      34340  MISS:      21197
L2C PREFETCH  ACCESS:    1070319  HIT:     945896  MISS:     124423
L2C WRITEBACK ACCESS:      82814  HIT:      82800  MISS:         14
L2C PREFETCH  REQUESTED:    3232995  ISSUED:    2046911  USEFUL:      20550  USELESS:     115224
L2C AVERAGE MISS LATENCY: 65.444 cycles
LLC TOTAL     ACCESS:     196707  HIT:     161617  MISS:      35090
LLC LOAD      ACCESS:      10530  HIT:       9554  MISS:        976
LLC RFO       ACCESS:      21196  HIT:      19079  MISS:       2117
LLC PREFETCH  ACCESS:     125420  HIT:      93511  MISS:      31909
LLC WRITEBACK ACCESS:      39561  HIT:      39473  MISS:         88
LLC PREFETCH  REQUESTED:          0  ISSUED:          0  USEFUL:       2054  USELESS:      18264
LLC AVERAGE MISS LATENCY: 156.982 cycles
Major fault: 0 Minor fault: 1081

L1D -512>	(0,34)	(1,43)	(4,33)	(2,113)	(-1,3)	(8,21)	(3,16)	(196,3)	(326,2)	(-432,2)	(112,3)	(7,2)	(6,7)	(121,1)	(363,1)	(5,11)	
L1D -511>	(1,18)	(2,9)	(0,3)	(3,4)	(6,13)	(8,13)	(7,1)	(4,2)	(1,0)	(1,0)	(1,0)	(1,0)	(1,0)	(1,0)	(1,0)	(1,0)	
L1D -510>	(2,72)	(1,10)	(4,34)	(8,40)	(6,68)	(7,1)	(0,2)	(3,1)	(-1,0)	(1,0)	(1,0)	(1,0)	(1,0)	(1,0)	(1,0)	(1,0)	
L1D -509>	(2,4)	(6,1)	(8,3)	(510,2)	(4,1)	(1,0)	(1,0)	(1,0)	(1,0)	(1,0)	(1,0)	(1,0)	(1,0)	(1,0)	(1,0)	(1,0)	
L1D -508>	(2,29)	(6,31)	(4,26)	(8,27)	(510,4)	(509,7)	(0,3)	(1,1)	(3,1)	(1,0)	(1,0)	(1,0)	(1,0)	(1,0)	(1,0)	(1,0)	
L1D -507>	(1,8)	(6,2)	(4,1)	(2,2)	(510,1)	(1,0)	(1,0)	(1,0)	(1,0)	(1,0)	(1,0)	(1,0)	(1,0)	(1,0)	(1,0)	(1,0)	
L1D -506>	(4,2)	(1,2)	(6,10)	(8,6)	(2,6)	(1,0)	(1,0)	(1,0)	(1,0)	(1,0)	(1,0)	(1,0)	(1,0)	(1,0)	(1,0)	(1,0)	
L1D -505>	(2,3)	(-2,1)	(-1,18)	(8,7)	(1,0)	(1,0)	(1,0)	(1,0)	(1,0)	(1,0)	(1,0)	(1,0)	(1,0)	(1,0)	(1,0)	(1,0)	
L1D -504>	(2,10)	(6,17)	(4,18)	(3,1)	(8,17)	(5,3)	(1,0)	(1,0)	(1,0)	(1,0)	(1,0)	(1,0)	(1,0)	(1,0)	(1,0)	(1,0)	
L1D -503>	(2,8)	(-1,4)	(1,0)	(1,0)	(1,0)	(1,0)	(1,0)	(1,0)	(1,0)	(1,0)	(1,0)	(1,0)	(1,0)	(1,0)	(1,0)	(1,0)	
L1D -502>	(1,11)	(2,2)	(4,10)	(378,1)	(3,1)	(35,2)	(1,0)	(1,0)	(1,0)	(1,0)	(1,0)	(1,0)	(1,0)	(1,0)	(1,0)	(1,0)	
L1D -501>	(-1,4)	(1,0)	(1,0)	(1,0)	(1,0)	(1,0)	(1,0)	(1,0)	(1,0)	(1,0)	(1,0)	(1,0)	(1,0)	(1,0)	(1,0)	(1,0)	
L1D -500>	(35,5)	(1,1)	(3,1)	(33,1)	(1,0)	(1,0)	(1,0)	(1,0)	(1,0)	(1,0)	(1,0)	(1,0)	(1,0)	(1,0)	(1,0)	(1,0)	
L1D -499>	(432,1)	(1,0)	(1,0)	(1,0)	(1,0)	(1,0)	(1,0)	(1,0)	(1,0)	(1,0)	(1,0)	(1,0)	(1,0)	(1,0)	(1,0)	(1,0)	
L1D -498>	(8,1)	(1,0)	(1,0)	(1,0)	(1,0)	(1,0)	(1,0)	(1,0)	(1,0)	(1,0)	(1,0)	(1,0)	(1,0)	(1,0)	(1,0)	(1,0)	
L1D -497>	(1,0)	(1,0)	(1,0)	(1,0)	(1,0)	(1,0)	(1,0)	(1,0)	(1,0)	(1,0)	(1,0)	(1,0)	(1,0)	(1,0)	(1,0)	(1,0)	
L1D -496>	(1,2)	(2,2)	(6,1)	(35,2)	(1,0)	(1,0)	(1,0)	(1,0)	(1,0)	(1,0)	(1,0)	(1,0)	(1,0)	(1,0)	(1,0)	(1,0)	
L1D -495>	(1,1)	(2,1)	(1,0)	(1,0)	(1,0)	(1,0)	(1,0)	(1,0)	(1,0)	(1,0)	(1,0)	(1,0)	(1,0)	(1,0)	(1,0)	(1,0)	
L1D -494>	(1,0)	(1,0)	(1,0)	(1,0)	(1,0)	(1,0)	(1,0)	(1,0)	(1,0)	(1,0)	(1,0)	(1,0)	(1,0)	(1,0)	(1,0)	(1,0)	
L1D -493>	(1,3)	(3,8)	(1,0)	(1,0)	(1,0)	(1,0)	(1,0)	(1,0)	(1,0)	(1,0)	(1,0)	(1,0)	(1,0)	(1,0)	(1,0)	(1,0)	
L1D -492>	(2,2)	(363,1)	(1,0)	(1,0)	(1,0)	(1,0)	(1,0)	(1,0)	(1,0)	(1,0)	(1,0)	(1,0)	(1,0)	(1,0)	(1,0)	(1,0)	
L1D -491>	(1,5)	(18,2)	(5,1)	(1,0)	(1,0)	(1,0)	(1,0)	(1,0)	(1,0)	(1,0)	(1,0)	(1,0)	(1,0)	(1,0)	(1,0)	(1,0)	
L1D -490>	(1,0)	(1,0)	(1,0)	(1,0)	(1,0)	(1,0)	(1,0)	(1,0)	(1,0)	(1,0)	(1,0)	(1,0)	(1,0)	(1,0)	(1,0)	(1,0)	
L1D -489>	(2,1)	(6,2)	(1,0)	(1,0)	(1,0)	(1,0)	(1,0)	(1,0)	(1,0)	(1,0)	(1,0)	(1,0)	(1,0)	(1,0)	(1,0)	(1,0)	
L1D -488>	(4,1)	(6,4)	(490,4)	(2,3)	(1,0)	(1,0)	(1,0)	(1,0)	(1,0)	(1,0)	(1,0)	(1,0)	(1,0)	(1,0)	(1,0)	(1,0)	
L1D -487>	(1,7)	(1,0)	(1,0)	(1,0)	(1,0)	(1,0)	(1,0)	(1,0)	(1,0)	(1,0)	(1,0)	(1,0)	(1,0)	(1,0)	(1,0)	(1,0)	
L1D -486>	(54,83)	(2,15)	(488,22)	(4,1)	(52,2)	(434,4)	(56,3)	(1,0)	(1,0)	(1,0)	(1,0)	(1,0)	(1,0)	(1,0)	(1,0)	(1,0)	
L1D -485>	(1,0)	(1,0)	(1,0)	(1,0)	(1,0)	(1,0)	(1,0)	(1,0)	(1,0)	(1,0)	(1,0)	(1,0)	(1,0)	(1,0)	(1,0)	(1,0)	
L1D -484>	(486,122)	(2,8)	(166,2)	(432,4)	(110,1)	(4,1)	(121,1)	(363,2)	(1,0)	(1,0)	(1,0)	(1,0)	(1,0)	(1,0)	(1,0)	(1,0)	
L1D -483>	(242,1)	(1,0)	(1,0)	(1,0)	(1,0)	(1,0)	(1,0)	(1,0)	(1,0)	(1,0)	(1,0)	(1,0)	(1,0)	(1,0)	(1,0)	(1,0)	
L1D -482>	(484,12)	(486,20)	(363,6)	(2,4)	(1,0)	(1,0)	(1,0)	(1,0)	(1,0)	(1,0)	(1,0)	(1,0)	(1,0)	(1,0)	(1,0)	(1,0)	
L1D -481>	(242,1)	(1,0)	(1,0)	(1,0)	(1,0)	(1,0)	(1,0)	(1,0)	(1,0)	(1,0)	(1,0)	(1,0)	(1,0)	(1,0)	(1,0)	(1,0)	
L1D -480>	(54,2)	(2,5)	(1,0)	(1,0)	(1,0)	(1,0)	(1,0)	(1,0)	(1,0)	(1,0)	(1,0)	(1,0)	(1,0)	(1,0)	(1,0)	(1,0)	
L1D -479>	(5,1)	(1,0)	(1,0)	(1,0)	(1,0)	(1,0)	(1,0)	(1,0)	(1,0)	(1,0)	(1,0)	(1,0)	(1,0)	(1,0)	(1,0)	(1,0)	
L1D -478>	(2,4)	(1,0)	(1,0)	(1,0)	(1,0)	(1,0)	(1,0)	(1,0)	(1,0)	(1,0)	(1,0)	(1,0)	(1,0)	(1,0)	(1,0)	(1,0)	
L1D -477>	(242,1)	(1,0)	(1,0)	(1,0)	(1,0)	(1,0)	(1,0)	(1,0)	(1,0)	(1,0)	(1,0)	(1,0)	(1,0)	(1,0)	(1,0)	(1,0)	
L1D -476>	(4,2)	(432,1)	(2,1)	(1,0)	(1,0)	(1,0)	(1,0)	(1,0)	(1,0)	(1,0)	(1,0)	(1,0)	(1,0)	(1,0)	(1,0)	(1,0)	
L1D -475>	(7,1)	(1,0)	(1,0)	(1,0)	(1,0)	(1,0)	(1,0)	(1,0)	(1,0)	(1,0)	(1,0)	(1,0)	(1,0)	(1,0)	(1,0)	(1,0)	
L1D -474>	(2,1)	(7,1)	(1,0)	(1,0)	(1,0)	(1,0)	(1,0)	(1,0)	(1,0)	(1,0)	(1,0)	(1,0)	(1,0)	(1,0)	(1,0)	(1,0)	
L1D -473>	(1,0)	(1,0)	(1,0)	(1,0)	(1,0)	(1,0)	(1,0)	(1,0)	(1,0)	(1,0)	(1,0)	(1,0)	(1,0)	(1,0)	(1,0)	(1,0)	
L1D -472>	(8,1)	(4,1)	(2,2)	(6,1)	(1,0)	(1,0)	(1,0)	(1,0)	(1,0)	(1,0)	(1,0)	(1,0)	(1,0)	(1,0)	(1,0)	(1,0)	
L1D -471>	(1,0)	(1,0)	(1,0)	(1,0)	(1,0)	(1,0)	(1,0)	(1,0)	(1,0)	(1,0)	(1,0)	(1,0)	(1,0)	(1,0)	(1,0)	(1,0)	
L1D -470>	(378,1)	(-1,1)	(326,1)	(1,0)	(1,0)	(1,0)	(1,0)	(1,0)	(1,0)	(1,0)	(1,0)	(1,0)	(1,0)	(1,0)	(1,0)	(1,0)	
L1D -469>	(1,0)	(1,0)	(1,0)	(1,0)	(1,0)	(1,0)	(1,0)	(1,0)	(1,0)	(1,0)	(1,0)	(1,0)	(1,0)	(1,0)	(1,0)	(1,0)	
L1D -468>	(6,1)	(1,0)	(1,0)	(1,0)	(1,0)	(1,0)	(1,0)	(1,0)	(1,0)	(1,0)	(1,0)	(1,0)	(1,0)	(1,0)	(1,0)	(1,0)	
L1D -467>	(2,2)	(3,4)	(1,0)	(1,0)	(1,0)	(1,0)	(1,0)	(1,0)	(1,0)	(1,0)	(1,0)	(1,0)	(1,0)	(1,0)	(1,0)	(1,0)	
L1D -466>	(2,6)	(4,2)	(436,1)	(8,3)	(1,0)	(1,0)	(1,0)	(1,0)	(1,0)	(1,0)	(1,0)	(1,0)	(1,0)	(1,0)	(1,0)	(1,0)	
L1D -465>	(2,2)	(1,0)	(1,0)	(1,0)	(1,0)	(1,0)	(1,0)	(1,0)	(1,0)	(1,0)	(1,0)	(1,0)	(1,0)	(1,0)	(1,0)	(1,0)	
L1D -464>	(2,5)	(8,5)	(1,0)	(1,0)	(1,0)	(1,0)	(1,0)	(1,0)	(1,0)	(1,0)	(1,0)	(1,0)	(1,0)	(1,0)	(1,0)	(1,0)	
L1D -463>	(-1,2)	(1,0)	(1,0)	(1,0)	(1,0)	(1,0)	(1,0)	(1,0)	(1,0)	(1,0)	(1,0)	(1,0)	(1,0)	(1,0)	(1,0)	(1,0)	
L1D -462>	(2,1)	(432,1)	(6,1)	(1,0)	(1,0)	(1,0)	(1,0)	(1,0)	(1,0)	(1,0)	(1,0)	(1,0)	(1,0)	(1,0)	(1,0)	(1,0)	
L1D -461>	(5,1)	(1,0)	(1,0)	(1,0)	(1,0)	(1,0)	(1,0)	(1,0)	(1,0)	(1,0)	(1,0)	(1,0)	(1,0)	(1,0)	(1,0)	(1,0)	
L1D -460>	(2,1)	(1,0)	(1,0)	(1,0)	(1,0)	(1,0)	(1,0)	(1,0)	(1,0)	(1,0)	(1,0)	(1,0)	(1,0)	(1,0)	(1,0)	(1,0)	
L1D -459>	(1,0)	(1,0)	(1,0)	(1,0)	(1,0)	(1,0)	(1,0)	(1,0)	(1,0)	(1,0)	(1,0)	(1,0)	(1,0)	(1,0)	(1,0)	(1,0)	
L1D -458>	(7,1)	(1,0)	(1,0)	(1,0)	(1,0)	(1,0)	(1,0)	(1,0)	(1,0)	(1,0)	(1,0)	(1,0)	(1,0)	(1,0)	(1,0)	(1,0)	
L1D -457>	(1,2)	(8,6)	(2,3)	(3,4)	(6,1)	(1,0)	(1,0)	(1,0)	(1,0)	(1,0)	(1,0)	(1,0)	(1,0)	(1,0)	(1,0)	(1,0)	
L1D -456>	(1,4)	(2,2)	(3,3)	(1,0)	(1,0)	(1,0)	(1,0)	(1,0)	(1,0)	(1,0)	(1,0)	(1,0)	(1,0)	(1,0)	(1,0)	(1,0)	
L1D -455>	(1,0)	(1,0)	(1,0)	(1,0)	(1,0)	(1,0)	(1,0)	(1,0)	(1,0)	(1,0)	(1,0)	(1,0)	(1,0)	(1,0)	(1,0)	(1,0)	
L1D -454>	(2,8)	(121,1)	(1,0)	(1,0)	(1,0)	(1,0)	(1,0)	(1,0)	(1,0)	(1,0)	(1,0)	(1,0)	(1,0)	(1,0)	(1,0)	(1,0)	
L1D -453>	(6,1)	(1,0)	(1,0)	(1,0)	(1,0)	(1,0)	(1,0)	(1,0)	(1,0)	(1,0)	(1,0)	(1,0)	(1,0)	(1,0)	(1,0)	(1,0)	
L1D -452>	(1,0)	(1,0)	(1,0)	(1,0)	(1,0)	(1,0)	(1,0)	(1,0)	(1,0)	(1,0)	(1,0)	(1,0)	(1,0)	(1,0)	(1,0)	(1,0)	
L1D -451>	(1,3)	(-1,3)	(2,2)	(1,0)	(1,0)	(1,0)	(1,0)	(1,0)	(1,0)	(1,0)	(1,0)	(1,0)	(1,0)	(1,0)	(1,0)	(1,0)	
L1D -450>	(1,6)	(3,2)	(6,1)	(2,12)	(4,1)	(1,0)	(1,0)	(1,0)	(1,0)	(1,0)	(1,0)	(1,0)	(1,0)	(1,0)	(1,0)	(1,0)	
L1D -449>	(3,2)	(1,0)	(1,0)	(1,0)	(1,0)	(1,0)	(1,0)	(1,0)	(1,0)	(1,0)	(1,0)	(1,0)	(1,0)	(1,0)	(1,0)	(1,0)	
L1D -448>	(1,0)	(1,0)	(1,0)	(1,0)	(1,0)	(1,0)	(1,0)	(1,0)	(1,0)	(1,0)	(1,0)	(1,0)	(1,0)	(1,0)	(1,0)	(1,0)	
L1D -447>	(0,1)	(8,1)	(1,0)	(1,0)	(1,0)	(1,0)	(1,0)	(1,0)	(1,0)	(1,0)	(1,0)	(1,0)	(1,0)	(1,0)	(1,0)	(1,0)	
L1D -446>	(2,2)	(4,12)	(1,0)	(1,0)	(1,0)	(1,0)	(1,0)	(1,0)	(1,0)	(1,0)	(1,0)	(1,0)	(1,0)	(1,0)	(1,0)	(1,0)	
L1D -445>	(1,0)	(1,0)	(1,0)	(1,0)	(1,0)	(1,0)	(1,0)	(1,0)	(1,0)	(1,0)	(1,0)	(1,0)	(1,0)	(1,0)	(1,0)	(1,0)	
L1D -444>	(2,1)	(432,1)	(1,0)	(1,0)	(1,0)	(1,0)	(1,0)	(1,0)	(1,0)	(1,0)	(1,0)	(1,0)	(1,0)	(1,0)	(1,0)	(1,0)	
L1D -443>	(8,1)	(5,1)	(1,0)	(1,0)	(1,0)	(1,0)	(1,0)	(1,0)	(1,0)	(1,0)	(1,0)	(1,0)	(1,0)	(1,0)	(1,0)	(1,0)	
L1D -442>	(2,3)	(1,0)	(1,0)	(1,0)	(1,0)	(1,0)	(1,0)	(1,0)	(1,0)	(1,0)	(1,0)	(1,0)	(1,0)	(1,0)	(1,0)	(1,0)	
L1D -441>	(4,1)	(1,18)	(2,9)	(8,1)	(1,0)	(1,0)	(1,0)	(1,0)	(1,0)	(1,0)	(1,0)	(1,0)	(1,0)	(1,0)	(1,0)	(1,0)	
L1D -440>	(4,2)	(2,6)	(8,2)	(6,1)	(1,0)	(1,0)	(1,0)	(1,0)	(1,0)	(1,0)	(1,0)	(1,0)	(1,0)	(1,0)	(1,0)	(1,0)	
L1D -439>	(1,13)	(4,2)	(6,3)	(2,3)	(1,0)	(1,0)	(1,0)	(1,0)	(1,0)	(1,0)	(1,0)	(1,0)	(1,0)	(1,0)	(1,0)	(1,0)	
L1D -438>	(1,22)	(442,1)	(2,6)	(440,1)	(6,2)	(4,2)	(1,0)	(1,0)	(1,0)	(1,0)	(1,0)	(1,0)	(1,0)	(1,0)	(1,0)	(1,0)	
L1D -437>	(1,21)	(-10,1)	(2,4)	(242,1)	(1,0)	(1,0)	(1,0)	(1,0)	(1,0)	(1,0)	(1,0)	(1,0)	(1,0)	(1,0)	(1,0)	(1,0)	
L1D -436>	(2,18)	(438,1)	(4,1)	(1,18)	(437,14)	(432,4)	(3,5)	(54,1)	(1,0)	(1,0)	(1,0)	(1,0)	(1,0)	(1,0)	(1,0)	(1,0)	
L1D -435>	(432,42)	(1,15)	(436,51)	(433,1)	(4,22)	(2,24)	(3,10)	(1,0)	(1,0)	(1,0)	(1,0)	(1,0)	(1,0)	(1,0)	(1,0)	(1,0)	
L1D -434>	(4,2)	(488,0)	(1,12)	(435,8)	(436,112)	(2,53)	(437,4)	(440,3)	(438,21)	(6,3)	(432,0)	(382,1)	(3,0)	(1,0)	(1,0)	(1,0)	
L1D -433>	(432,102)	(2,120)	(1,38)	(434,21)	(3,2)	(435,31)	(-10,0)	(4,0)	(8,0)	(1,0)	(1,0)	(1,0)	(1,0)	(1,0)	(1,0)	(1,0)	
L1D -432>	(434,85)	(2,9)	(438,1)	(3,0)	(440,0)	(6,0)	(4,0)	(380,6)	(436,6)	(-72,0)	(433,4)	(54,5)	(1,2)	(378,0)	(486,1)	(7,0)	
L1D -431>	(433,97)	(2,5)	(432,82)	(430,1)	(4,0)	(112,0)	(438,0)	(1,3)	(434,0)	(3,0)	(-4,0)	(1,0)	(1,0)	(1,0)	(1,0)	(1,0)	
L1D -430>	(432,90)	(2,3)	(6,1)	(431,0)	(-2,0)	(-1,0)	(54,0)	(378,0)	(-54,0)	(434,0)	(376,0)	(4,0)	(8,0)	(1,1)	(1,0)	(1,0)	
L1D -429>	(1,12)	(430,8)	(432,121)	(431,19)	(433,99)	(2,13)	(-1,5)	(54,1)	(-2,1)	(3,1)	(1,0)	(1,0)	(1,0)	(1,0)	(1,0)	(1,0)	
L1D -428>	(1,2)	(429,1)	(432,91)	(430,16)	(2,13)	(4,2)	(8,1)	(434,7)	(-4,1)	(372,0)	(433,0)	(-3,1)	(436,0)	(6,1)	(1,0)	(1,0)	
L1D -427>	(372,2)	(432,42)	(-1,1)	(373,4)	(-3,4)	(1,7)	(430,4)	(428,15)	(2,3)	(431,3)	(12,1)	(429,3)	(6,2)	(8,1)	(1,0)	(1,0)	
L1D -426>	(2,18)	(432,69)	(428,1)	(4,3)	(430,2)	(6,2)	(427,2)	(8,0)	(434,0)	(429,1)	(1,0)	(1,0)	(1,0)	(1,0)	(1,0)	(1,0)	
L1D -425>	(1,2)	(428,1)	(1,0)	(1,0)	(1,0)	(1,0)	(1,0)	(1,0)	(1,0)	(1,0)	(1,0)	(1,0)	(1,0)	(1,0)	(1,0)	(1,0)	
L1D -424>	(2,38)	(1,9)	(430,3)	(432,88)	(4,4)	(6,6)	(425,1)	(8,3)	(1,0)	(1,0)	(1,0)	(1,0)	(1,0)	(1,0)	(1,0)	(1,0)	
L1D -423>	(1,0)	(1,0)	(1,0)	(1,0)	(1,0)	(1,0)	(1,0)	(1,0)	(1,0)	(1,0)	(1,0)	(1,0)	(1,0)	(1,0)	(1,0)	(1,0)	
L1D -422>	(2,11)	(1,4)	(422,8)	(6,2)	(4,1)	(-4,1)	(432,1)	(428,1)	(8,1)	(1,0)	(1,0)	(1,0)	(1,0)	(1,0)	(1,0)	(1,0)	
L1D -421>	(432,2)	(1,5)	(2,1)	(1,0)	(1,0)	(1,0)	(1,0)	(1,0)	(1,0)	(1,0)	(1,0)	(1,0)	(1,0)	(1,0)	(1,0)	(1,0)	
L1D -420>	(2,4)	(-8,1)	(1,4)	(-2,2)	(432,1)	(6,1)	(1,0)	(1,0)	(1,0)	(1,0)	(1,0)	(1,0)	(1,0)	(1,0)	(1,0)	(1,0)	
L1D -419>	(1,6)	(326,1)	(1,0)	(1,0)	(1,0)	(1,0)	(1,0)	(1,0)	(1,0)	(1,0)	(1,0)	(1,0)	(1,0)	(1,0)	(1,0)	(1,0)	
L1D -418>	(2,9)	(4,3)	(1,3)	(363,1)	(6,1)	(1,0)	(1,0)	(1,0)	(1,0)	(1,0)	(1,0)	(1,0)	(1,0)	(1,0)	(1,0)	(1,0)	
L1D -417>	(419,3)	(2,1)	(3,1)	(1,1)	(1,0)	(1,0)	(1,0)	(1,0)	(1,0)	(1,0)	(1,0)	(1,0)	(1,0)	(1,0)	(1,0)	(1,0)	
L1D -416>	(2,8)	(1,4)	(3,1)	(432,1)	(411,4)	(4,1)	(-12,1)	(8,1)	(1,0)	(1,0)	(1,0)	(1,0)	(1,0)	(1,0)	(1,0)	(1,0)	
L1D -415>	(4,1)	(1,0)	(1,0)	(1,0)	(1,0)	(1,0)	(1,0)	(1,0)	(1,0)	(1,0)	(1,0)	(1,0)	(1,0)	(1,0)	(1,0)	(1,0)	
L1D -414>	(0,46)	(2,9)	(412,7)	(1,0)	(1,0)	(1,0)	(1,0)	(1,0)	(1,0)	(1,0)	(1,0)	(1,0)	(1,0)	(1,0)	(1,0)	(1,0)	
L1D -413>	(0,7)	(42,2)	(414,1)	(54,1)	(1,0)	(1,0)	(1,0)	(1,0)	(1,0)	(1,0)	(1,0)	(1,0)	(1,0)	(1,0)	(1,0)	(1,0)	
L1D -412>	(2,3)	(4,1)	(1,0)	(1,0)	(1,0)	(1,0)	(1,0)	(1,0)	(1,0)	(1,0)	(1,0)	(1,0)	(1,0)	(1,0)	(1,0)	(1,0)	
L1D -411>	(54,1)	(409,4)	(1,0)	(1,0)	(1,0)	(1,0)	(1,0)	(1,0)	(1,0)	(1,0)	(1,0)	(1,0)	(1,0)	(1,0)	(1,0)	(1,0)	
L1D -410>	(5,1)	(8,1)	(1,0)	(1,0)	(1,0)	(1,0)	(1,0)	(1,0)	(1,0)	(1,0)	(1,0)	(1,0)	(1,0)	(1,0)	(1,0)	(1,0)	
L1D -409>	(1,4)	(4,6)	(6,1)	(1,0)	(1,0)	(1,0)	(1,0)	(1,0)	(1,0)	(1,0)	(1,0)	(1,0)	(1,0)	(1,0)	(1,0)	(1,0)	
L1D -408>	(1,7)	(2,1)	(1,0)	(1,0)	(1,0)	(1,0)	(1,0)	(1,0)	(1,0)	(1,0)	(1,0)	(1,0)	(1,0)	(1,0)	(1,0)	(1,0)	
L1D -407>	(432,1)	(1,0)	(1,0)	(1,0)	(1,0)	(1,0)	(1,0)	(1,0)	(1,0)	(1,0)	(1,0)	(1,0)	(1,0)	(1,0)	(1,0)	(1,0)	
L1D -406>	(0,1)	(1,0)	(1,0)	(1,0)	(1,0)	(1,0)	(1,0)	(1,0)	(1,0)	(1,0)	(1,0)	(1,0)	(1,0)	(1,0)	(1,0)	(1,0)	
L1D -405>	(8,1)	(1,0)	(1,0)	(1,0)	(1,0)	(1,0)	(1,0)	(1,0)	(1,0)	(1,0)	(1,0)	(1,0)	(1,0)	(1,0)	(1,0)	(1,0)	
L1D -404>	(432,1)	(1,1)	(1,0)	(1,0)	(1,0)	(1,0)	(1,0)	(1,0)	(1,0)	(1,0)	(1,0)	(1,0)	(1,0)	(1,0)	(1,0)	(1,0)	
L1D -403>	(1,0)	(1,0)	(1,0)	(1,0)	(1,0)	(1,0)	(1,0)	(1,0)	(1,0)	(1,0)	(1,0)	(1,0)	(1,0)	(1,0)	(1,0)	(1,0)	
L1D -402>	(2,1)	(4,1)	(1,2)	(11,2)	(1,0)	(1,0)	(1,0)	(1,0)	(1,0)	(1,0)	(1,0)	(1,0)	(1,0)	(1,0)	(1,0)	(1,0)	
L1D -401>	(4,1)	(1,0)	(1,0)	(1,0)	(1,0)	(1,0)	(1,0)	(1,0)	(1,0)	(1,0)	(1,0)	(1,0)	(1,0)	(1,0)	(1,0)	(1,0)	
L1D -400>	(1,2)	(2,1)	(1,0)	(1,0)	(1,0)	(1,0)	(1,0)	(1,0)	(1,0)	(1,0)	(1,0)	(1,0)	(1,0)	(1,0)	(1,0)	(1,0)	
L1D -399>	(2,10)	(1,0)	(1,0)	(1,0)	(1,0)	(1,0)	(1,0)	(1,0)	(1,0)	(1,0)	(1,0)	(1,0)	(1,0)	(1,0)	(1,0)	(1,0)	
L1D -398>	(1,0)	(1,0)	(1,0)	(1,0)	(1,0)	(1,0)	(1,0)	(1,0)	(1,0)	(1,0)	(1,0)	(1,0)	(1,0)	(1,0)	(1,0)	(1,0)	
L1D -397>	(399,1)	(1,0)	(1,0)	(1,0)	(1,0)	(1,0)	(1,0)	(1,0)	(1,0)	(1,0)	(1,0)	(1,0)	(1,0)	(1,0)	(1,0)	(1,0)	
L1D -396>	(0,6)	(1,1)	(399,1)	(4,1)	(1,0)	(1,0)	(1,0)	(1,0)	(1,0)	(1,0)	(1,0)	(1,0)	(1,0)	(1,0)	(1,0)	(1,0)	
L1D -395>	(2,2)	(6,2)	(1,0)	(1,0)	(1,0)	(1,0)	(1,0)	(1,0)	(1,0)	(1,0)	(1,0)	(1,0)	(1,0)	(1,0)	(1,0)	(1,0)	
L1D -394>	(1,2)	(2,42)	(6,11)	(4,7)	(399,6)	(8,3)	(1,0)	(1,0)	(1,0)	(1,0)	(1,0)	(1,0)	(1,0)	(1,0)	(1,0)	(1,0)	
L1D -393>	(6,1)	(42,1)	(2,9)	(1,0)	(1,0)	(1,0)	(1,0)	(1,0)	(1,0)	(1,0)	(1,0)	(1,0)	(1,0)	(1,0)	(1,0)	(1,0)	
L1D -392>	(2,34)	(4,21)	(3,8)	(6,36)	(8,8)	(1,5)	(363,1)	(1,0)	(1,0)	(1,0)	(1,0)	(1,0)	(1,0)	(1,0)	(1,0)	(1,0)	
L1D -391>	(2,1)	(-3,4)	(1,0)	(1,0)	(1,0)	(1,0)	(1,0)	(1,0)	(1,0)	(1,0)	(1,0)	(1,0)	(1,0)	(1,0)	(1,0)	(1,0)	
L1D -390>	(2,10)	(121,1)	(4,1)	(1,0)	(1,0)	(1,0)	(1,0)	(1,0)	(1,0)	(1,0)	(1,0)	(1,0)	(1,0)	(1,0)	(1,0)	(1,0)	
L1D -389>	(2,8)	(0,1)	(1,0)	(1,0)	(1,0)	(1,0)	(1,0)	(1,0)	(1,0)	(1,0)	(1,0)	(1,0)	(1,0)	(1,0)	(1,0)	(1,0)	
L1D -388>	(2,2)	(1,0)	(1,0)	(1,0)	(1,0)	(1,0)	(1,0)	(1,0)	(1,0)	(1,0)	(1,0)	(1,0)	(1,0)	(1,0)	(1,0)	(1,0)	
L1D -387>	(1,5)	(2,4)	(4,1)	(1,0)	(1,0)	(1,0)	(1,0)	(1,0)	(1,0)	(1,0)	(1,0)	(1,0)	(1,0)	(1,0)	(1,0)	(1,0)	
L1D -386>	(2,2)	(391,3)	(8,6)	(4,4)	(1,0)	(1,0)	(1,0)	(1,0)	(1,0)	(1,0)	(1,0)	(1,0)	(1,0)	(1,0)	(1,0)	(1,0)	
L1D -385>	(1,0)	(1,0)	(1,0)	(1,0)	(1,0)	(1,0)	(1,0)	(1,0)	(1,0)	(1,0)	(1,0)	(1,0)	(1,0)	(1,0)	(1,0)	(1,0)	
L1D -384>	(4,11)	(2,10)	(1,2)	(6,1)	(1,0)	(1,0)	(1,0)	(1,0)	(1,0)	(1,0)	(1,0)	(1,0)	(1,0)	(1,0)	(1,0)	(1,0)	
L1D -383>	(2,2)	(1,0)	(1,0)	(1,0)	(1,0)	(1,0)	(1,0)	(1,0)	(1,0)	(1,0)	(1,0)	(1,0)	(1,0)	(1,0)	(1,0)	(1,0)	
L1D -382>	(2,5)	(5,1)	(3,1)	(6,1)	(1,0)	(1,0)	(1,0)	(1,0)	(1,0)	(1,0)	(1,0)	(1,0)	(1,0)	(1,0)	(1,0)	(1,0)	
L1D -381>	(54,3)	(385,4)	(1,0)	(1,0)	(1,0)	(1,0)	(1,0)	(1,0)	(1,0)	(1,0)	(1,0)	(1,0)	(1,0)	(1,0)	(1,0)	(1,0)	
L1D -380>	(-52,28)	(2,10)	(1,1)	(382,9)	(434,9)	(-50,1)	(6,1)	(1,0)	(1,0)	(1,0)	(1,0)	(1,0)	(1,0)	(1,0)	(1,0)	(1,0)	
L1D -379>	(2,1)	(54,1)	(325,1)	(1,0)	(1,0)	(1,0)	(1,0)	(1,0)	(1,0)	(1,0)	(1,0)	(1,0)	(1,0)	(1,0)	(1,0)	(1,0)	
L1D -378>	(380,69)	(432,4)	(-52,0)	(2,5)	(434,0)	(-54,1)	(382,0)	(4,0)	(112,0)	(430,0)	(-2,0)	(1,0)	(1,0)	(1,0)	(1,0)	(1,0)	
L1D -377>	(1,42)	(432,46)	(2,28)	(-54,1)	(3,41)	(430,1)	(379,2)	(4,3)	(8,2)	(6,4)	(378,1)	(1,0)	(1,0)	(1,0)	(1,0)	(1,0)	
L1D -376>	(379,1)	(54,13)	(1,29)	(-56,1)	(-54,36)	(432,43)	(3,4)	(380,16)	(378,62)	(2,43)	(4,7)	(486,2)	(374,6)	(377,3)	(0,1)	(433,1)	
L1D -375>	(1,17)	(432,9)	(376,1)	(3,11)	(377,4)	(2,9)	(326,1)	(-54,1)	(1,0)	(1,0)	(1,0)	(1,0)	(1,0)	(1,0)	(1,0)	(1,0)	
L1D -374>	(1,2)	(376,3)	(429,2)	(378,3)	(54,16)	(432,3)	(377,1)	(375,1)	(3,1)	(1,0)	(1,0)	(1,0)	(1,0)	(1,0)	(1,0)	(1,0)	
L1D -373>	(1,7)	(428,5)	(432,2)	(376,2)	(2,2)	(377,1)	(429,1)	(1,0)	(1,0)	(1,0)	(1,0)	(1,0)	(1,0)	(1,0)	(1,0)	(1,0)	
L1D -372>	(427,2)	(2,6)	(374,2)	(430,1)	(432,2)	(8,1)	(428,1)	(1,0)	(1,0)	(1,0)	(1,0)	(1,0)	(1,0)	(1,0)	(1,0)	(1,0)	
L1D -371>	(-36,8)	(428,2)	(379,1)	(372,2)	(373,1)	(374,6)	(2,2)	(375,1)	(377,2)	(1,0)	(1,0)	(1,0)	(1,0)	(1,0)	(1,0)	(1,0)	
L1D -370>	(8,1)	(39,1)	(426,2)	(376,1)	(4,1)	(1,1)	(11,3)	(2,1)	(1,0)	(1,0)	(1,0)	(1,0)	(1,0)	(1,0)	(1,0)	(1,0)	
L1D -369>	(2,2)	(0,2)	(-36,1)	(1,0)	(1,0)	(1,0)	(1,0)	(1,0)	(1,0)	(1,0)	(1,0)	(1,0)	(1,0)	(1,0)	(1,0)	(1,0)	
L1D -368>	(2,29)	(1,1)	(6,1)	(54,1)	(1,0)	(1,0)	(1,0)	(1,0)	(1,0)	(1,0)	(1,0)	(1,0)	(1,0)	(1,0)	(1,0)	(1,0)	
L1D -367>	(-6,1)	(-8,1)	(1,0)	(1,0)	(1,0)	(1,0)	(1,0)	(1,0)	(1,0)	(1,0)	(1,0)	(1,0)	(1,0)	(1,0)	(1,0)	(1,0)	
L1D -366>	(0,1)	(2,42)	(42,2)	(4,5)	(6,3)	(371,5)	(-7,1)	(8,3)	(1,0)	(1,0)	(1,0)	(1,0)	(1,0)	(1,0)	(1,0)	(1,0)	
L1D -365>	(432,1)	(-7,1)	(1,0)	(1,0)	(1,0)	(1,0)	(1,0)	(1,0)	(1,0)	(1,0)	(1,0)	(1,0)	(1,0)	(1,0)	(1,0)	(1,0)	
L1D -364>	(2,11)	(8,10)	(4,3)	(5,1)	(6,2)	(-121,1)	(1,0)	(1,0)	(1,0)	(1,0)	(1,0)	(1,0)	(1,0)	(1,0)	(1,0)	(1,0)	
L1D -363>	(242,56)	(121,16)	(0,9)	(-121,9)	(3,4)	(365,15)	(2,12)	(484,7)	(-113,1)	(272,1)	(-81,1)	(133,1)	(347,1)	(1,0)	(1,0)	(1,0)	
L1D -362>	(2,5)	(8,1)	(432,3)	(1,0)	(1,0)	(1,0)	(1,0)	(1,0)	(1,0)	(1,0)	(1,0)	(1,0)	(1,0)	(1,0)	(1,0)	(1,0)	
L1D -361>	(0,2)	(363,8)	(242,4)	(2,1)	(1,0)	(1,0)	(1,0)	(1,0)	(1,0)	(1,0)	(1,0)	(1,0)	(1,0)	(1,0)	(1,0)	(1,0)	
L1D -360>	(6,1)	(8,2)	(326,1)	(2,1)	(1,0)	(1,0)	(1,0)	(1,0)	(1,0)	(1,0)	(1,0)	(1,0)	(1,0)	(1,0)	(1,0)	(1,0)	
L1D -359>	(8,1)	(3,1)	(1,1)	(1,0)	(1,0)	(1,0)	(1,0)	(1,0)	(1,0)	(1,0)	(1,0)	(1,0)	(1,0)	(1,0)	(1,0)	(1,0)	
L1D -358>	(2,2)	(8,2)	(4,1)	(5,1)	(1,0)	(1,0)	(1,0)	(1,0)	(1,0)	(1,0)	(1,0)	(1,0)	(1,0)	(1,0)	(1,0)	(1,0)	
L1D -357>	(359,2)	(1,0)	(1,0)	(1,0)	(1,0)	(1,0)	(1,0)	(1,0)	(1,0)	(1,0)	(1,0)	(1,0)	(1,0)	(1,0)	(1,0)	(1,0)	
L1D -356>	(-8,1)	(359,2)	(2,74)	(4,12)	(6,11)	(54,1)	(3,6)	(8,1)	(1,0)	(1,0)	(1,0)	(1,0)	(1,0)	(1,0)	(1,0)	(1,0)	
L1D -355>	(4,1)	(1,0)	(1,0)	(1,0)	(1,0)	(1,0)	(1,0)	(1,0)	(1,0)	(1,0)	(1,0)	(1,0)	(1,0)	(1,0)	(1,0)	(1,0)	
L1D -354>	(4,18)	(2,24)	(6,7)	(8,1)	(1,0)	(1,0)	(1,0)	(1,0)	(1,0)	(1,0)	(1,0)	(1,0)	(1,0)	(1,0)	(1,0)	(1,0)	
L1D -353>	(2,4)	(42,1)	(4,1)	(359,1)	(-3,1)	(1,0)	(1,0)	(1,0)	(1,0)	(1,0)	(1,0)	(1,0)	(1,0)	(1,0)	(1,0)	(1,0)	
L1D -352>	(2,19)	(1,1)	(4,7)	(6,6)	(1,0)	(1,0)	(1,0)	(1,0)	(1,0)	(1,0)	(1,0)	(1,0)	(1,0)	(1,0)	(1,0)	(1,0)	
L1D -351>	(354,2)	(1,0)	(1,0)	(1,0)	(1,0)	(1,0)	(1,0)	(1,0)	(1,0)	(1,0)	(1,0)	(1,0)	(1,0)	(1,0)	(1,0)	(1,0)	
L1D -350>	(6,1)	(4,2)	(1,0)	(1,0)	(1,0)	(1,0)	(1,0)	(1,0)	(1,0)	(1,0)	(1,0)	(1,0)	(1,0)	(1,0)	(1,0)	(1,0)	
L1D -349>	(2,1)	(54,1)	(1,0)	(1,0)	(1,0)	(1,0)	(1,0)	(1,0)	(1,0)	(1,0)	(1,0)	(1,0)	(1,0)	(1,0)	(1,0)	(1,0)	
L1D -348>	(4,2)	(2,2)	(1,0)	(1,0)	(1,0)	(1,0)	(1,0)	(1,0)	(1,0)	(1,0)	(1,0)	(1,0)	(1,0)	(1,0)	(1,0)	(1,0)	
L1D -347>	(54,1)	(2,2)	(6,1)	(1,0)	(1,0)	(1,0)	(1,0)	(1,0)	(1,0)	(1,0)	(1,0)	(1,0)	(1,0)	(1,0)	(1,0)	(1,0)	
L1D -346>	(42,6)	(8,1)	(2,1)	(1,0)	(1,0)	(1,0)	(1,0)	(1,0)	(1,0)	(1,0)	(1,0)	(1,0)	(1,0)	(1,0)	(1,0)	(1,0)	
L1D -345>	(121,1)	(1,0)	(1,0)	(1,0)	(1,0)	(1,0)	(1,0)	(1,0)	(1,0)	(1,0)	(1,0)	(1,0)	(1,0)	(1,0)	(1,0)	(1,0)	
L1D -344>	(4,1)	(2,1)	(6,1)	(1,0)	(1,0)	(1,0)	(1,0)	(1,0)	(1,0)	(1,0)	(1,0)	(1,0)	(1,0)	(1,0)	(1,0)	(1,0)	
L1D -343>	(8,1)	(1,0)	(1,0)	(1,0)	(1,0)	(1,0)	(1,0)	(1,0)	(1,0)	(1,0)	(1,0)	(1,0)	(1,0)	(1,0)	(1,0)	(1,0)	
L1D -342>	(2,25)	(6,24)	(4,4)	(8,4)	(1,0)	(1,0)	(1,0)	(1,0)	(1,0)	(1,0)	(1,0)	(1,0)	(1,0)	(1,0)	(1,0)	(1,0)	
L1D -341>	(2,7)	(8,7)	(6,11)	(4,2)	(1,0)	(1,0)	(1,0)	(1,0)	(1,0)	(1,0)	(1,0)	(1,0)	(1,0)	(1,0)	(1,0)	(1,0)	
L1D -340>	(2,15)	(4,3)	(6,2)	(3,1)	(8,1)	(1,0)	(1,0)	(1,0)	(1,0)	(1,0)	(1,0)	(1,0)	(1,0)	(1,0)	(1,0)	(1,0)	
L1D -339>	(1,0)	(1,0)	(1,0)	(1,0)	(1,0)	(1,0)	(1,0)	(1,0)	(1,0)	(1,0)	(1,0)	(1,0)	(1,0)	(1,0)	(1,0)	(1,0)	
L1D -338>	(2,3)	(8,1)	(1,0)	(1,0)	(1,0)	(1,0)	(1,0)	(1,0)	(1,0)	(1,0)	(1,0)	(1,0)	(1,0)	(1,0)	(1,0)	(1,0)	
L1D -337>	(339,2)	(363,1)	(345,1)	(1,0)	(1,0)	(1,0)	(1,0)	(1,0)	(1,0)	(1,0)	(1,0)	(1,0)	(1,0)	(1,0)	(1,0)	(1,0)	
L1D -336>	(339,1)	(2,1)	(3,4)	(1,1)	(334,1)	(1,0)	(1,0)	(1,0)	(1,0)	(1,0)	(1,0)	(1,0)	(1,0)	(1,0)	(1,0)	(1,0)	
L1D -335>	(363,1)	(1,0)	(1,0)	(1,0)	(1,0)	(1,0)	(1,0)	(1,0)	(1,0)	(1,0)	(1,0)	(1,0)	(1,0)	(1,0)	(1,0)	(1,0)	
L1D -334>	(1,0)	(1,0)	(1,0)	(1,0)	(1,0)	(1,0)	(1,0)	(1,0)	(1,0)	(1,0)	(1,0)	(1,0)	(1,0)	(1,0)	(1,0)	(1,0)	
L1D -333>	(0,3)	(42,1)	(334,1)	(1,0)	(1,0)	(1,0)	(1,0)	(1,0)	(1,0)	(1,0)	(1,0)	(1,0)	(1,0)	(1,0)	(1,0)	(1,0)	
L1D -332>	(54,2)	(4,2)	(2,1)	(1,0)	(1,0)	(1,0)	(1,0)	(1,0)	(1,0)	(1,0)	(1,0)	(1,0)	(1,0)	(1,0)	(1,0)	(1,0)	
L1D -331>	(54,1)	(326,1)	(1,0)	(1,0)	(1,0)	(1,0)	(1,0)	(1,0)	(1,0)	(1,0)	(1,0)	(1,0)	(1,0)	(1,0)	(1,0)	(1,0)	
L1D -330>	(2,2)	(333,1)	(1,0)	(1,0)	(1,0)	(1,0)	(1,0)	(1,0)	(1,0)	(1,0)	(1,0)	(1,0)	(1,0)	(1,0)	(1,0)	(1,0)	
L1D -329>	(1,0)	(1,0)	(1,0)	(1,0)	(1,0)	(1,0)	(1,0)	(1,0)	(1,0)	(1,0)	(1,0)	(1,0)	(1,0)	(1,0)	(1,0)	(1,0)	
L1D -328>	(8,1)	(196,1)	(331,1)	(2,1)	(1,0)	(1,0)	(1,0)	(1,0)	(1,0)	(1,0)	(1,0)	(1,0)	(1,0)	(1,0)	(1,0)	(1,0)	
L1D -327>	(-8,1)	(1,0)	(1,0)	(1,0)	(1,0)	(1,0)	(1,0)	(1,0)	(1,0)	(1,0)	(1,0)	(1,0)	(1,0)	(1,0)	(1,0)	(1,0)	
L1D -326>	(0,7)	(326,76)	(2,26)	(325,1)	(1,0)	(1,0)	(1,0)	(1,0)	(1,0)	(1,0)	(1,0)	(1,0)	(1,0)	(1,0)	(1,0)	(1,0)	
L1D -325>	(325,69)	(0,15)	(-1,1)	(6,1)	(1,0)	(1,0)	(1,0)	(1,0)	(1,0)	(1,0)	(1,0)	(1,0)	(1,0)	(1,0)	(1,0)	(1,0)	
L1D -324>	(-3,1)	(-2,15)	(54,1)	(1,0)	(1,0)	(1,0)	(1,0)	(1,0)	(1,0)	(1,0)	(1,0)	(1,0)	(1,0)	(1,0)	(1,0)	(1,0)	
L1D -323>	(54,83)	(4,2)	(-2,2)	(1,0)	(1,0)	(1,0)	(1,0)	(1,0)	(1,0)	(1,0)	(1,0)	(1,0)	(1,0)	(1,0)	(1,0)	(1,0)	
L1D -322>	(2,7)	(0,1)	(325,4)	(-44,1)	(6,1)	(8,1)	(438,1)	(54,2)	(1,0)	(1,0)	(1,0)	(1,0)	(1,0)	(1,0)	(1,0)	(1,0)	
L1D -321>	(2,17)	(-2,1)	(4,8)	(8,1)	(1,0)	(1,0)	(1,0)	(1,0)	(1,0)	(1,0)	(1,0)	(1,0)	(1,0)	(1,0)	(1,0)	(1,0)	
L1D -320>	(64,18)	(-1,24)	(1,11)	(2,50)	(6,3)	(433,6)	(486,1)	(4,18)	(8,4)	(432,2)	(3,2)	(-54,1)	(1,0)	(1,0)	(1,0)	(1,0)	
L1D -319>	(64,26)	(2,18)	(4,10)	(8,6)	(6,7)	(312,4)	(0,1)	(1,0)	(1,0)	(1,0)	(1,0)	(1,0)	(1,0)	(1,0)	(1,0)	(1,0)	
L1D -318>	(2,13)	(-1,2)	(1,3)	(8,1)	(3,1)	(4,1)	(486,1)	(1,0)	(1,0)	(1,0)	(1,0)	(1,0)	(1,0)	(1,0)	(1,0)	(1,0)	
L1D -317>	(319,2)	(54,3)	(2,1)	(1,0)	(1,0)	(1,0)	(1,0)	(1,0)	(1,0)	(1,0)	(1,0)	(1,0)	(1,0)	(1,0)	(1,0)	(1,0)	
L1D -316>	(42,1)	(2,5)	(4,5)	(6,11)	(8,2)	(1,1)	(121,1)	(-1,1)	(1,0)	(1,0)	(1,0)	(1,0)	(1,0)	(1,0)	(1,0)	(1,0)	
L1D -315>	(6,4)	(4,2)	(8,2)	(2,1)	(1,0)	(1,0)	(1,0)	(1,0)	(1,0)	(1,0)	(1,0)	(1,0)	(1,0)	(1,0)	(1,0)	(1,0)	
L1D -314>	(2,10)	(3,1)	(4,13)	(319,7)	(6,1)	(8,1)	(1,0)	(1,0)	(1,0)	(1,0)	(1,0)	(1,0)	(1,0)	(1,0)	(1,0)	(1,0)	
L1D -313>	(2,16)	(6,4)	(1,1)	(16,1)	(8,1)	(-1,1)	(4,1)	(-3,1)	(1,0)	(1,0)	(1,0)	(1,0)	(1,0)	(1,0)	(1,0)	(1,0)	
L1D -312>	(2,74)	(1,5)	(-54,4)	(0,1)	(8,2)	(4,2)	(6,1)	(1,0)	(1,0)	(1,0)	(1,0)	(1,0)	(1,0)	(1,0)	(1,0)	(1,0)	
L1D -311>	(2,1)	(1,0)	(1,0)	(1,0)	(1,0)	(1,0)	(1,0)	(1,0)	(1,0)	(1,0)	(1,0)	(1,0)	(1,0)	(1,0)	(1,0)	(1,0)	
L1D -310>	(62,9)	(2,18)	(10,9)	(4,10)	(8,1)	(1,2)	(313,5)	(6,2)	(1,0)	(1,0)	(1,0)	(1,0)	(1,0)	(1,0)	(1,0)	(1,0)	
L1D -309>	(2,1)	(0,1)	(1,0)	(1,0)	(1,0)	(1,0)	(1,0)	(1,0)	(1,0)	(1,0)	(1,0)	(1,0)	(1,0)	(1,0)	(1,0)	(1,0)	
L1D -308>	(6,1)	(2,6)	(-5,2)	(5,1)	(4,4)	(1,0)	(1,0)	(1,0)	(1,0)	(1,0)	(1,0)	(1,0)	(1,0)	(1,0)	(1,0)	(1,0)	
L1D -307>	(-8,1)	(-12,9)	(2,2)	(4,2)	(1,0)	(1,0)	(1,0)	(1,0)	(1,0)	(1,0)	(1,0)	(1,0)	(1,0)	(1,0)	(1,0)	(1,0)	
L1D -306>	(2,53)	(4,18)	(1,4)	(6,1)	(1,0)	(1,0)	(1,0)	(1,0)	(1,0)	(1,0)	(1,0)	(1,0)	(1,0)	(1,0)	(1,0)	(1,0)	
L1D -305>	(2,1)	(1,0)	(1,0)	(1,0)	(1,0)	(1,0)	(1,0)	(1,0)	(1,0)	(1,0)	(1,0)	(1,0)	(1,0)	(1,0)	(1,0)	(1,0)	
L1D -304>	(4,8)	(2,3)	(-42,1)	(1,0)	(1,0)	(1,0)	(1,0)	(1,0)	(1,0)	(1,0)	(1,0)	(1,0)	(1,0)	(1,0)	(1,0)	(1,0)	
L1D -303>	(8,1)	(1,0)	(1,0)	(1,0)	(1,0)	(1,0)	(1,0)	(1,0)	(1,0)	(1,0)	(1,0)	(1,0)	(1,0)	(1,0)	(1,0)	(1,0)	
L1D -302>	(4,2)	(296,3)	(2,1)	(1,0)	(1,0)	(1,0)	(1,0)	(1,0)	(1,0)	(1,0)	(1,0)	(1,0)	(1,0)	(1,0)	(1,0)	(1,0)	
L1D -301>	(8,1)	(54,4)	(6,1)	(1,0)	(1,0)	(1,0)	(1,0)	(1,0)	(1,0)	(1,0)	(1,0)	(1,0)	(1,0)	(1,0)	(1,0)	(1,0)	
L1D -300>	(2,2)	(-1,1)	(54,2)	(4,3)	(1,1)	(1,0)	(1,0)	(1,0)	(1,0)	(1,0)	(1,0)	(1,0)	(1,0)	(1,0)	(1,0)	(1,0)	
L1D -299>	(8,1)	(1,1)	(2,1)	(1,0)	(1,0)	(1,0)	(1,0)	(1,0)	(1,0)	(1,0)	(1,0)	(1,0)	(1,0)	(1,0)	(1,0)	(1,0)	
L1D -298>	(8,1)	(6,2)	(54,2)	(0,1)	(3,1)	(1,0)	(1,0)	(1,0)	(1,0)	(1,0)	(1,0)	(1,0)	(1,0)	(1,0)	(1,0)	(1,0)	
L1D -297>	(299,1)	(8,1)	(1,0)	(1,0)	(1,0)	(1,0)	(1,0)	(1,0)	(1,0)	(1,0)	(1,0)	(1,0)	(1,0)	(1,0)	(1,0)	(1,0)	
L1D -296>	(0,1)	(39,1)	(4,1)	(2,1)	(1,0)	(1,0)	(1,0)	(1,0)	(1,0)	(1,0)	(1,0)	(1,0)	(1,0)	(1,0)	(1,0)	(1,0)	
L1D -295>	(1,0)	(1,0)	(1,0)	(1,0)	(1,0)	(1,0)	(1,0)	(1,0)	(1,0)	(1,0)	(1,0)	(1,0)	(1,0)	(1,0)	(1,0)	(1,0)	
L1D -294>	(1,1)	(2,1)	(299,7)	(1,0)	(1,0)	(1,0)	(1,0)	(1,0)	(1,0)	(1,0)	(1,0)	(1,0)	(1,0)	(1,0)	(1,0)	(1,0)	
L1D -293>	(289,4)	(42,1)	(2,1)	(-3,1)	(0,1)	(1,0)	(1,0)	(1,0)	(1,0)	(1,0)	(1,0)	(1,0)	(1,0)	(1,0)	(1,0)	(1,0)	
L1D -292>	(121,1)	(54,1)	(1,0)	(1,0)	(1,0)	(1,0)	(1,0)	(1,0)	(1,0)	(1,0)	(1,0)	(1,0)	(1,0)	(1,0)	(1,0)	(1,0)	
L1D -291>	(2,1)	(3,1)	(1,0)	(1,0)	(1,0)	(1,0)	(1,0)	(1,0)	(1,0)	(1,0)	(1,0)	(1,0)	(1,0)	(1,0)	(1,0)	(1,0)	
L1D -290>	(2,4)	(39,1)	(4,1)	(121,1)	(1,0)	(1,0)	(1,0)	(1,0)	(1,0)	(1,0)	(1,0)	(1,0)	(1,0)	(1,0)	(1,0)	(1,0)	
L1D -289>	(290,1)	(2,3)	(0,4)	(4,1)	(8,1)	(1,0)	(1,0)	(1,0)	(1,0)	(1,0)	(1,0)	(1,0)	(1,0)	(1,0)	(1,0)	(1,0)	
L1D -288>	(2,41)	(-8,1)	(8,1)	(1,2)	(-5,1)	(1,0)	(1,0)	(1,0)	(1,0)	(1,0)	(1,0)	(1,0)	(1,0)	(1,0)	(1,0)	(1,0)	
L1D -287>	(-8,2)	(1,2)	(2,1)	(-6,1)	(1,0)	(1,0)	(1,0)	(1,0)	(1,0)	(1,0)	(1,0)	(1,0)	(1,0)	(1,0)	(1,0)	(1,0)	
L1D -286>	(42,1)	(2,26)	(1,3)	(1,0)	(1,0)	(1,0)	(1,0)	(1,0)	(1,0)	(1,0)	(1,0)	(1,0)	(1,0)	(1,0)	(1,0)	(1,0)	
L1D -285>	(54,2)	(1,0)	(1,0)	(1,0)	(1,0)	(1,0)	(1,0)	(1,0)	(1,0)	(1,0)	(1,0)	(1,0)	(1,0)	(1,0)	(1,0)	(1,0)	
L1D -284>	(2,4)	(1,1)	(6,2)	(1,0)	(1,0)	(1,0)	(1,0)	(1,0)	(1,0)	(1,0)	(1,0)	(1,0)	(1,0)	(1,0)	(1,0)	(1,0)	
L1D -283>	(1,0)	(1,0)	(1,0)	(1,0)	(1,0)	(1,0)	(1,0)	(1,0)	(1,0)	(1,0)	(1,0)	(1,0)	(1,0)	(1,0)	(1,0)	(1,0)	
L1D -282>	(2,14)	(4,12)	(0,1)	(256,6)	(1,0)	(1,0)	(1,0)	(1,0)	(1,0)	(1,0)	(1,0)	(1,0)	(1,0)	(1,0)	(1,0)	(1,0)	
L1D -281>	(0,1)	(1,0)	(1,0)	(1,0)	(1,0)	(1,0)	(1,0)	(1,0)	(1,0)	(1,0)	(1,0)	(1,0)	(1,0)	(1,0)	(1,0)	(1,0)	
L1D -280>	(2,1)	(4,1)	(8,2)	(6,2)	(0,2)	(1,0)	(1,0)	(1,0)	(1,0)	(1,0)	(1,0)	(1,0)	(1,0)	(1,0)	(1,0)	(1,0)	
L1D -279>	(-54,1)	(8,1)	(4,2)	(1,0)	(1,0)	(1,0)	(1,0)	(1,0)	(1,0)	(1,0)	(1,0)	(1,0)	(1,0)	(1,0)	(1,0)	(1,0)	
L1D -278>	(2,21)	(6,11)	(4,20)	(8,1)	(242,1)	(1,0)	(1,0)	(1,0)	(1,0)	(1,0)	(1,0)	(1,0)	(1,0)	(1,0)	(1,0)	(1,0)	
L1D -277>	(1,0)	(1,0)	(1,0)	(1,0)	(1,0)	(1,0)	(1,0)	(1,0)	(1,0)	(1,0)	(1,0)	(1,0)	(1,0)	(1,0)	(1,0)	(1,0)	
L1D -276>	(2,13)	(6,10)	(1,1)	(4,2)	(-1,1)	(1,0)	(1,0)	(1,0)	(1,0)	(1,0)	(1,0)	(1,0)	(1,0)	(1,0)	(1,0)	(1,0)	
L1D -275>	(4,4)	(5,1)	(1,0)	(1,0)	(1,0)	(1,0)	(1,0)	(1,0)	(1,0)	(1,0)	(1,0)	(1,0)	(1,0)	(1,0)	(1,0)	(1,0)	
L1D -274>	(0,2)	(4,11)	(54,1)	(2,3)	(8,1)	(1,0)	(1,0)	(1,0)	(1,0)	(1,0)	(1,0)	(1,0)	(1,0)	(1,0)	(1,0)	(1,0)	
L1D -273>	(1,0)	(1,0)	(1,0)	(1,0)	(1,0)	(1,0)	(1,0)	(1,0)	(1,0)	(1,0)	(1,0)	(1,0)	(1,0)	(1,0)	(1,0)	(1,0)	
L1D -272>	(6,1)	(0,7)	(4,1)	(2,2)	(1,0)	(1,0)	(1,0)	(1,0)	(1,0)	(1,0)	(1,0)	(1,0)	(1,0)	(1,0)	(1,0)	(1,0)	
L1D -271>	(-42,1)	(1,0)	(1,0)	(1,0)	(1,0)	(1,0)	(1,0)	(1,0)	(1,0)	(1,0)	(1,0)	(1,0)	(1,0)	(1,0)	(1,0)	(1,0)	
L1D -270>	(2,9)	(-1,1)	(-54,1)	(4,6)	(9,1)	(1,0)	(1,0)	(1,0)	(1,0)	(1,0)	(1,0)	(1,0)	(1,0)	(1,0)	(1,0)	(1,0)	
L1D -269>	(54,92)	(4,0)	(1,0)	(1,0)	(1,0)	(1,0)	(1,0)	(1,0)	(1,0)	(1,0)	(1,0)	(1,0)	(1,0)	(1,0)	(1,0)	(1,0)	
L1D -268>	(4,8)	(-1,1)	(54,3)	(6,2)	(3,1)	(2,1)	(1,0)	(1,0)	(1,0)	(1,0)	(1,0)	(1,0)	(1,0)	(1,0)	(1,0)	(1,0)	
L1D -267>	(-54,1)	(2,3)	(1,3)	(8,7)	(196,1)	(4,2)	(6,1)	(1,0)	(1,0)	(1,0)	(1,0)	(1,0)	(1,0)	(1,0)	(1,0)	(1,0)	
L1D -266>	(2,18)	(4,15)	(54,2)	(-54,8)	(8,3)	(1,6)	(6,9)	(-8,1)	(432,1)	(1,0)	(1,0)	(1,0)	(1,0)	(1,0)	(1,0)	(1,0)	
L1D -265>	(1,14)	(2,30)	(3,13)	(4,20)	(8,3)	(326,1)	(1,0)	(1,0)	(1,0)	(1,0)	(1,0)	(1,0)	(1,0)	(1,0)	(1,0)	(1,0)	
L1D -264>	(4,23)	(2,6)	(3,1)	(6,11)	(8,17)	(1,1)	(-36,1)	(1,0)	(1,0)	(1,0)	(1,0)	(1,0)	(1,0)	(1,0)	(1,0)	(1,0)	
L1D -263>	(2,1)	(4,1)	(1,0)	(1,0)	(1,0)	(1,0)	(1,0)	(1,0)	(1,0)	(1,0)	(1,0)	(1,0)	(1,0)	(1,0)	(1,0)	(1,0)	
L1D -262>	(2,3)	(6,5)	(4,1)	(1,0)	(1,0)	(1,0)	(1,0)	(1,0)	(1,0)	(1,0)	(1,0)	(1,0)	(1,0)	(1,0)	(1,0)	(1,0)	
L1D -261>	(256,1)	(1,0)	(1,0)	(1,0)	(1,0)	(1,0)	(1,0)	(1,0)	(1,0)	(1,0)	(1,0)	(1,0)	(1,0)	(1,0)	(1,0)	(1,0)	
L1D -260>	(2,96)	(1,1)	(228,0)	(6,0)	(1,0)	(1,0)	(1,0)	(1,0)	(1,0)	(1,0)	(1,0)	(1,0)	(1,0)	(1,0)	(1,0)	(1,0)	
L1D -259>	(1,13)	(0,1)	(2,1)	(1,0)	(1,0)	(1,0)	(1,0)	(1,0)	(1,0)	(1,0)	(1,0)	(1,0)	(1,0)	(1,0)	(1,0)	(1,0)	
L1D -258>	(1,32)	(2,29)	(8,4)	(6,7)	(227,1)	(7,2)	(4,2)	(1,0)	(1,0)	(1,0)	(1,0)	(1,0)	(1,0)	(1,0)	(1,0)	(1,0)	
L1D -257>	(2,32)	(0,8)	(226,1)	(8,1)	(1,1)	(1,0)	(1,0)	(1,0)	(1,0)	(1,0)	(1,0)	(1,0)	(1,0)	(1,0)	(1,0)	(1,0)	
L1D -256>	(1,19)	(2,20)	(-1,8)	(-54,8)	(225,1)	(4,1)	(-4,2)	(3,1)	(8,1)	(6,1)	(1,0)	(1,0)	(1,0)	(1,0)	(1,0)	(1,0)	
L1D -255>	(2,2)	(0,4)	(168,4)	(224,1)	(4,1)	(8,1)	(1,0)	(1,0)	(1,0)	(1,0)	(1,0)	(1,0)	(1,0)	(1,0)	(1,0)	(1,0)	
L1D -254>	(2,4)	(31,2)	(4,5)	(1,1)	(223,1)	(1,0)	(1,0)	(1,0)	(1,0)	(1,0)	(1,0)	(1,0)	(1,0)	(1,0)	(1,0)	(1,0)	
L1D -253>	(2,1)	(11,1)	(54,1)	(121,1)	(222,1)	(1,0)	(1,0)	(1,0)	(1,0)	(1,0)	(1,0)	(1,0)	(1,0)	(1,0)	(1,0)	(1,0)	
L1D -252>	(2,7)	(54,2)	(4,3)	(221,1)	(1,2)	(1,0)	(1,0)	(1,0)	(1,0)	(1,0)	(1,0)	(1,0)	(1,0)	(1,0)	(1,0)	(1,0)	
L1D -251>	(2,1)	(220,1)	(54,2)	(1,0)	(1,0)	(1,0)	(1,0)	(1,0)	(1,0)	(1,0)	(1,0)	(1,0)	(1,0)	(1,0)	(1,0)	(1,0)	
L1D -250>	(251,9)	(250,9)	(247,1)	(2,4)	(1,1)	(3,3)	(31,1)	(1,0)	(1,0)	(1,0)	(1,0)	(1,0)	(1,0)	(1,0)	(1,0)	(1,0)	
L1D -249>	(249,2)	(1,0)	(1,0)	(1,0)	(1,0)	(1,0)	(1,0)	(1,0)	(1,0)	(1,0)	(1,0)	(1,0)	(1,0)	(1,0)	(1,0)	(1,0)	
L1D -248>	(62,18)	(248,1)	(54,1)	(1,1)	(2,1)	(6,1)	(1,0)	(1,0)	(1,0)	(1,0)	(1,0)	(1,0)	(1,0)	(1,0)	(1,0)	(1,0)	
L1D -247>	(-54,1)	(247,1)	(1,15)	(1,0)	(1,0)	(1,0)	(1,0)	(1,0)	(1,0)	(1,0)	(1,0)	(1,0)	(1,0)	(1,0)	(1,0)	(1,0)	
L1D -246>	(246,1)	(2,1)	(6,1)	(8,6)	(247,1)	(1,0)	(1,0)	(1,0)	(1,0)	(1,0)	(1,0)	(1,0)	(1,0)	(1,0)	(1,0)	(1,0)	
L1D -245>	(1,9)	(245,1)	(259,8)	(1,0)	(1,0)	(1,0)	(1,0)	(1,0)	(1,0)	(1,0)	(1,0)	(1,0)	(1,0)	(1,0)	(1,0)	(1,0)	
L1D -244>	(0,9)	(244,1)	(2,8)	(54,1)	(3,1)	(1,0)	(1,0)	(1,0)	(1,0)	(1,0)	(1,0)	(1,0)	(1,0)	(1,0)	(1,0)	(1,0)	
L1D -243>	(0,1)	(1,0)	(1,0)	(1,0)	(1,0)	(1,0)	(1,0)	(1,0)	(1,0)	(1,0)	(1,0)	(1,0)	(1,0)	(1,0)	(1,0)	(1,0)	
L1D -242>	(0,66)	(121,74)	(363,36)	(484,25)	(242,46)	(-121,13)	(123,15)	(365,8)	(2,20)	(1,7)	(108,1)	(-114,1)	(50,1)	(206,1)	(54,1)	(1,0)	
L1D -241>	(2,3)	(0,1)	(1,0)	(1,0)	(1,0)	(1,0)	(1,0)	(1,0)	(1,0)	(1,0)	(1,0)	(1,0)	(1,0)	(1,0)	(1,0)	(1,0)	
L1D -240>	(1,2)	(-121,5)	(0,6)	(242,12)	(363,12)	(2,5)	(1,0)	(1,0)	(1,0)	(1,0)	(1,0)	(1,0)	(1,0)	(1,0)	(1,0)	(1,0)	
L1D -239>	(2,1)	(1,0)	(1,0)	(1,0)	(1,0)	(1,0)	(1,0)	(1,0)	(1,0)	(1,0)	(1,0)	(1,0)	(1,0)	(1,0)	(1,0)	(1,0)	
L1D -238>	(2,7)	(-242,1)	(1,1)	(6,1)	(1,0)	(1,0)	(1,0)	(1,0)	(1,0)	(1,0)	(1,0)	(1,0)	(1,0)	(1,0)	(1,0)	(1,0)	
L1D -237>	(-83,1)	(0,1)	(1,0)	(1,0)	(1,0)	(1,0)	(1,0)	(1,0)	(1,0)	(1,0)	(1,0)	(1,0)	(1,0)	(1,0)	(1,0)	(1,0)	
L1D -236>	(1,1)	(8,2)	(6,1)	(1,0)	(1,0)	(1,0)	(1,0)	(1,0)	(1,0)	(1,0)	(1,0)	(1,0)	(1,0)	(1,0)	(1,0)	(1,0)	
L1D -235>	(235,9)	(6,3)	(2,2)	(4,1)	(1,0)	(1,0)	(1,0)	(1,0)	(1,0)	(1,0)	(1,0)	(1,0)	(1,0)	(1,0)	(1,0)	(1,0)	
L1D -234>	(2,11)	(234,1)	(6,6)	(8,4)	(4,2)	(1,1)	(1,0)	(1,0)	(1,0)	(1,0)	(1,0)	(1,0)	(1,0)	(1,0)	(1,0)	(1,0)	
L1D -233>	(233,1)	(19,4)	(1,0)	(1,0)	(1,0)	(1,0)	(1,0)	(1,0)	(1,0)	(1,0)	(1,0)	(1,0)	(1,0)	(1,0)	(1,0)	(1,0)	
L1D -232>	(2,39)	(1,5)	(232,1)	(4,12)	(6,14)	(8,2)	(0,1)	(-121,1)	(-1,1)	(1,0)	(1,0)	(1,0)	(1,0)	(1,0)	(1,0)	(1,0)	
L1D -231>	(231,2)	(-54,1)	(8,1)	(1,0)	(1,0)	(1,0)	(1,0)	(1,0)	(1,0)	(1,0)	(1,0)	(1,0)	(1,0)	(1,0)	(1,0)	(1,0)	
L1D -230>	(2,3)	(230,1)	(8,3)	(1,5)	(6,2)	(3,2)	(4,1)	(1,0)	(1,0)	(1,0)	(1,0)	(1,0)	(1,0)	(1,0)	(1,0)	(1,0)	
L1D -229>	(1,10)	(230,7)	(229,1)	(6,1)	(1,0)	(1,0)	(1,0)	(1,0)	(1,0)	(1,0)	(1,0)	(1,0)	(1,0)	(1,0)	(1,0)	(1,0)	
L1D -228>	(9,9)	(-9,9)	(228,1)	(229,1)	(8,3)	(2,1)	(1,0)	(1,0)	(1,0)	(1,0)	(1,0)	(1,0)	(1,0)	(1,0)	(1,0)	(1,0)	
L1D -227>	(2,2)	(227,6)	(1,6)	(4,1)	(1,0)	(1,0)	(1,0)	(1,0)	(1,0)	(1,0)	(1,0)	(1,0)	(1,0)	(1,0)	(1,0)	(1,0)	
L1D -226>	(2,3)	(226,3)	(4,4)	(432,1)	(325,1)	(1,0)	(1,0)	(1,0)	(1,0)	(1,0)	(1,0)	(1,0)	(1,0)	(1,0)	(1,0)	(1,0)	
L1D -225>	(225,8)	(254,2)	(-3,6)	(2,2)	(8,1)	(5,1)	(1,1)	(1,0)	(1,0)	(1,0)	(1,0)	(1,0)	(1,0)	(1,0)	(1,0)	(1,0)	
L1D -224>	(224,2)	(222,3)	(4,3)	(1,7)	(2,5)	(8,1)	(1,0)	(1,0)	(1,0)	(1,0)	(1,0)	(1,0)	(1,0)	(1,0)	(1,0)	(1,0)	
L1D -223>	(1,0)	(1,0)	(1,0)	(1,0)	(1,0)	(1,0)	(1,0)	(1,0)	(1,0)	(1,0)	(1,0)	(1,0)	(1,0)	(1,0)	(1,0)	(1,0)	
L1D -222>	(1,1)	(220,7)	(4,1)	(6,1)	(2,3)	(60,1)	(1,0)	(1,0)	(1,0)	(1,0)	(1,0)	(1,0)	(1,0)	(1,0)	(1,0)	(1,0)	
L1D -221>	(1,17)	(8,1)	(54,4)	(2,1)	(60,1)	(1,0)	(1,0)	(1,0)	(1,0)	(1,0)	(1,0)	(1,0)	(1,0)	(1,0)	(1,0)	(1,0)	
L1D -220>	(218,5)	(-1,1)	(6,1)	(54,1)	(4,1)	(1,3)	(2,2)	(3,1)	(60,1)	(1,0)	(1,0)	(1,0)	(1,0)	(1,0)	(1,0)	(1,0)	
L1D -219>	(4,1)	(60,1)	(1,0)	(1,0)	(1,0)	(1,0)	(1,0)	(1,0)	(1,0)	(1,0)	(1,0)	(1,0)	(1,0)	(1,0)	(1,0)	(1,0)	
L1D -218>	(1,5)	(4,1)	(216,4)	(2,3)	(8,1)	(1,0)	(1,0)	(1,0)	(1,0)	(1,0)	(1,0)	(1,0)	(1,0)	(1,0)	(1,0)	(1,0)	
L1D -217>	(2,1)	(6,1)	(1,0)	(1,0)	(1,0)	(1,0)	(1,0)	(1,0)	(1,0)	(1,0)	(1,0)	(1,0)	(1,0)	(1,0)	(1,0)	(1,0)	
L1D -216>	(1,4)	(4,5)	(60,1)	(215,4)	(54,3)	(2,4)	(1,0)	(1,0)	(1,0)	(1,0)	(1,0)	(1,0)	(1,0)	(1,0)	(1,0)	(1,0)	
L1D -215>	(6,2)	(4,1)	(1,0)	(54,76)	(0,0)	(3,1)	(1,0)	(1,0)	(1,0)	(1,0)	(1,0)	(1,0)	(1,0)	(1,0)	(1,0)	(1,0)	
L1D -214>	(1,23)	(209,2)	(4,9)	(6,37)	(35,6)	(3,1)	(1,0)	(1,0)	(1,0)	(1,0)	(1,0)	(1,0)	(1,0)	(1,0)	(1,0)	(1,0)	
L1D -213>	(1,1)	(6,4)	(-54,3)	(0,2)	(3,5)	(4,3)	(2,2)	(-2,1)	(1,0)	(1,0)	(1,0)	(1,0)	(1,0)	(1,0)	(1,0)	(1,0)	
L1D -212>	(1,51)	(4,2)	(210,3)	(224,6)	(49,1)	(3,2)	(60,8)	(56,1)	(54,7)	(35,1)	(55,1)	(53,1)	(52,1)	(51,1)	(6,2)	(0,1)	
L1D -211>	(1,15)	(4,31)	(54,2)	(206,29)	(2,22)	(210,11)	(204,1)	(-54,3)	(3,1)	(1,0)	(1,0)	(1,0)	(1,0)	(1,0)	(1,0)	(1,0)	
L1D -210>	(1,55)	(2,104)	(4,56)	(-1,10)	(54,23)	(-54,6)	(6,26)	(10,6)	(0,17)	(212,1)	(432,4)	(1,0)	(1,0)	(1,0)	(1,0)	(1,0)	
L1D -209>	(-1,71)	(212,2)	(204,2)	(4,4)	(2,2)	(1,2)	(6,2)	(3,1)	(1,0)	(1,0)	(1,0)	(1,0)	(1,0)	(1,0)	(1,0)	(1,0)	
L1D -208>	(4,7)	(2,31)	(6,7)	(54,1)	(-1,18)	(-2,28)	(211,31)	(56,1)	(5,1)	(1,1)	(432,2)	(3,1)	(8,1)	(1,0)	(1,0)	(1,0)	
L1D -207>	(1,29)	(55,1)	(1,0)	(1,0)	(1,0)	(1,0)	(1,0)	(1,0)	(1,0)	(1,0)	(1,0)	(1,0)	(1,0)	(1,0)	(1,0)	(1,0)	
L1D -206>	(-4,4)	(6,11)	(1,4)	(294,1)	(54,1)	(4,1)	(200,4)	(2,1)	(136,1)	(211,2)	(1,0)	(1,0)	(1,0)	(1,0)	(1,0)	(1,0)	
L1D -205>	(1,8)	(53,1)	(16,1)	(4,1)	(206,2)	(1,0)	(1,0)	(1,0)	(1,0)	(1,0)	(1,0)	(1,0)	(1,0)	(1,0)	(1,0)	(1,0)	
L1D -204>	(2,10)	(1,24)	(363,1)	(8,1)	(6,1)	(52,1)	(1,0)	(1,0)	(1,0)	(1,0)	(1,0)	(1,0)	(1,0)	(1,0)	(1,0)	(1,0)	
L1D -203>	(2,4)	(203,9)	(51,1)	(1,0)	(1,0)	(1,0)	(1,0)	(1,0)	(1,0)	(1,0)	(1,0)	(1,0)	(1,0)	(1,0)	(1,0)	(1,0)	
L1D -202>	(0,1)	(2,5)	(-1,2)	(202,1)	(-14,9)	(1,1)	(203,8)	(-54,4)	(50,1)	(1,0)	(1,0)	(1,0)	(1,0)	(1,0)	(1,0)	(1,0)	
L1D -201>	(1,27)	(202,1)	(201,1)	(204,6)	(91,8)	(102,4)	(196,3)	(193,1)	(220,1)	(49,1)	(1,0)	(1,0)	(1,0)	(1,0)	(1,0)	(1,0)	
L1D -200>	(0,7)	(1,8)	(200,9)	(-8,5)	(8,3)	(3,1)	(6,2)	(1,0)	(1,0)	(1,0)	(1,0)	(1,0)	(1,0)	(1,0)	(1,0)	(1,0)	
L1D -199>	(0,9)	(199,1)	(-54,1)	(1,0)	(1,0)	(1,0)	(1,0)	(1,0)	(1,0)	(1,0)	(1,0)	(1,0)	(1,0)	(1,0)	(1,0)	(1,0)	
L1D -198>	(2,2)	(198,1)	(105,4)	(0,10)	(1,8)	(177,2)	(193,2)	(6,1)	(4,1)	(8,1)	(1,0)	(1,0)	(1,0)	(1,0)	(1,0)	(1,0)	
L1D -197>	(1,16)	(197,9)	(2,7)	(54,1)	(326,1)	(1,0)	(1,0)	(1,0)	(1,0)	(1,0)	(1,0)	(1,0)	(1,0)	(1,0)	(1,0)	(1,0)	
L1D -196>	(0,53)	(197,4)	(196,1)	(54,2)	(1,6)	(-54,1)	(4,5)	(2,1)	(1,0)	(1,0)	(1,0)	(1,0)	(1,0)	(1,0)	(1,0)	(1,0)	
L1D -195>	(4,4)	(197,3)	(0,1)	(1,0)	(1,0)	(1,0)	(1,0)	(1,0)	(1,0)	(1,0)	(1,0)	(1,0)	(1,0)	(1,0)	(1,0)	(1,0)	
L1D -194>	(2,15)	(1,13)	(196,10)	(4,18)	(3,17)	(0,3)	(-1,1)	(5,1)	(198,1)	(1,0)	(1,0)	(1,0)	(1,0)	(1,0)	(1,0)	(1,0)	
L1D -193>	(2,5)	(197,2)	(1,0)	(1,0)	(1,0)	(1,0)	(1,0)	(1,0)	(1,0)	(1,0)	(1,0)	(1,0)	(1,0)	(1,0)	(1,0)	(1,0)	
L1D -192>	(2,11)	(4,7)	(1,2)	(8,1)	(31,1)	(1,0)	(1,0)	(1,0)	(1,0)	(1,0)	(1,0)	(1,0)	(1,0)	(1,0)	(1,0)	(1,0)	
L1D -191>	(2,2)	(192,1)	(3,3)	(1,1)	(-1,5)	(1,0)	(1,0)	(1,0)	(1,0)	(1,0)	(1,0)	(1,0)	(1,0)	(1,0)	(1,0)	(1,0)	
L1D -190>	(2,2)	(4,7)	(-1,2)	(192,1)	(1,1)	(3,1)	(1,0)	(1,0)	(1,0)	(1,0)	(1,0)	(1,0)	(1,0)	(1,0)	(1,0)	(1,0)	
L1D -189>	(6,1)	(54,2)	(2,1)	(1,0)	(1,0)	(1,0)	(1,0)	(1,0)	(1,0)	(1,0)	(1,0)	(1,0)	(1,0)	(1,0)	(1,0)	(1,0)	
L1D -188>	(2,11)	(6,3)	(4,2)	(0,2)	(1,0)	(1,0)	(1,0)	(1,0)	(1,0)	(1,0)	(1,0)	(1,0)	(1,0)	(1,0)	(1,0)	(1,0)	
L1D -187>	(2,5)	(0,1)	(1,14)	(188,9)	(187,6)	(18,8)	(4,15)	(161,6)	(6,7)	(3,6)	(165,1)	(121,1)	(1,0)	(1,0)	(1,0)	(1,0)	
L1D -186>	(188,2)	(186,1)	(4,1)	(194,4)	(192,1)	(3,2)	(2,3)	(1,1)	(6,1)	(0,1)	(1,0)	(1,0)	(1,0)	(1,0)	(1,0)	(1,0)	
L1D -185>	(185,1)	(2,8)	(1,0)	(1,0)	(1,0)	(1,0)	(1,0)	(1,0)	(1,0)	(1,0)	(1,0)	(1,0)	(1,0)	(1,0)	(1,0)	(1,0)	
L1D -184>	(184,1)	(1,6)	(2,2)	(363,1)	(6,1)	(8,2)	(1,0)	(1,0)	(1,0)	(1,0)	(1,0)	(1,0)	(1,0)	(1,0)	(1,0)	(1,0)	
L1D -183>	(183,2)	(-1,1)	(1,0)	(1,0)	(1,0)	(1,0)	(1,0)	(1,0)	(1,0)	(1,0)	(1,0)	(1,0)	(1,0)	(1,0)	(1,0)	(1,0)	
L1D -182>	(182,1)	(8,6)	(6,1)	(183,1)	(1,0)	(1,0)	(1,0)	(1,0)	(1,0)	(1,0)	(1,0)	(1,0)	(1,0)	(1,0)	(1,0)	(1,0)	
L1D -181>	(181,1)	(270,1)	(18,8)	(1,0)	(1,0)	(1,0)	(1,0)	(1,0)	(1,0)	(1,0)	(1,0)	(1,0)	(1,0)	(1,0)	(1,0)	(1,0)	
L1D -180>	(181,8)	(180,3)	(-1,7)	(6,1)	(33,1)	(121,1)	(1,0)	(1,0)	(1,0)	(1,0)	(1,0)	(1,0)	(1,0)	(1,0)	(1,0)	(1,0)	
L1D -179>	(179,1)	(113,1)	(1,0)	(1,0)	(1,0)	(1,0)	(1,0)	(1,0)	(1,0)	(1,0)	(1,0)	(1,0)	(1,0)	(1,0)	(1,0)	(1,0)	
L1D -178>	(178,7)	(4,1)	(84,1)	(2,8)	(180,2)	(1,0)	(1,0)	(1,0)	(1,0)	(1,0)	(1,0)	(1,0)	(1,0)	(1,0)	(1,0)	(1,0)	
L1D -177>	(2,5)	(1,3)	(177,2)	(4,2)	(111,1)	(8,3)	(1,0)	(1,0)	(1,0)	(1,0)	(1,0)	(1,0)	(1,0)	(1,0)	(1,0)	(1,0)	
L1D -176>	(2,26)	(176,8)	(1,1)	(8,23)	(4,2)	(6,1)	(0,1)	(1,0)	(1,0)	(1,0)	(1,0)	(1,0)	(1,0)	(1,0)	(1,0)	(1,0)	
L1D -175>	(175,1)	(2,1)	(4,4)	(109,1)	(1,0)	(1,0)	(1,0)	(1,0)	(1,0)	(1,0)	(1,0)	(1,0)	(1,0)	(1,0)	(1,0)	(1,0)	
L1D -174>	(-12,9)	(2,4)	(4,10)	(6,2)	(176,1)	(432,1)	(-121,1)	(1,0)	(1,0)	(1,0)	(1,0)	(1,0)	(1,0)	(1,0)	(1,0)	(1,0)	
L1D -173>	(-50,18)	(8,5)	(270,8)	(107,1)	(57,1)	(51,1)	(1,0)	(1,0)	(1,0)	(1,0)	(1,0)	(1,0)	(1,0)	(1,0)	(1,0)	(1,0)	
L1D -172>	(54,3)	(2,1)	(4,4)	(6,2)	(1,1)	(1,0)	(1,0)	(1,0)	(1,0)	(1,0)	(1,0)	(1,0)	(1,0)	(1,0)	(1,0)	(1,0)	
L1D -171>	(0,18)	(105,1)	(1,0)	(1,0)	(1,0)	(1,0)	(1,0)	(1,0)	(1,0)	(1,0)	(1,0)	(1,0)	(1,0)	(1,0)	(1,0)	(1,0)	
L1D -170>	(172,1)	(2,1)	(325,1)	(126,1)	(1,0)	(1,0)	(1,0)	(1,0)	(1,0)	(1,0)	(1,0)	(1,0)	(1,0)	(1,0)	(1,0)	(1,0)	
L1D -169>	(1,3)	(103,1)	(1,0)	(1,0)	(1,0)	(1,0)	(1,0)	(1,0)	(1,0)	(1,0)	(1,0)	(1,0)	(1,0)	(1,0)	(1,0)	(1,0)	
L1D -168>	(180,27)	(2,1)	(1,0)	(1,0)	(1,0)	(1,0)	(1,0)	(1,0)	(1,0)	(1,0)	(1,0)	(1,0)	(1,0)	(1,0)	(1,0)	(1,0)	
L1D -167>	(1,19)	(2,8)	(101,1)	(1,0)	(1,0)	(1,0)	(1,0)	(1,0)	(1,0)	(1,0)	(1,0)	(1,0)	(1,0)	(1,0)	(1,0)	(1,0)	
L1D -166>	(2,2)	(161,2)	(0,1)	(325,2)	(4,2)	(6,2)	(1,0)	(1,0)	(1,0)	(1,0)	(1,0)	(1,0)	(1,0)	(1,0)	(1,0)	(1,0)	
L1D -165>	(-54,2)	(161,1)	(99,1)	(1,0)	(1,0)	(1,0)	(1,0)	(1,0)	(1,0)	(1,0)	(1,0)	(1,0)	(1,0)	(1,0)	(1,0)	(1,0)	
L1D -164>	(1,6)	(0,1)	(4,6)	(8,23)	(3,13)	(2,2)	(6,1)	(54,2)	(1,0)	(1,0)	(1,0)	(1,0)	(1,0)	(1,0)	(1,0)	(1,0)	
L1D -163>	(-12,2)	(104,1)	(1,5)	(131,6)	(2,1)	(4,2)	(-49,1)	(97,1)	(1,0)	(1,0)	(1,0)	(1,0)	(1,0)	(1,0)	(1,0)	(1,0)	
L1D -162>	(2,5)	(6,5)	(4,27)	(164,2)	(54,2)	(-50,2)	(1,0)	(1,0)	(1,0)	(1,0)	(1,0)	(1,0)	(1,0)	(1,0)	(1,0)	(1,0)	
L1D -161>	(54,76)	(2,3)	(4,1)	(0,2)	(8,0)	(1,2)	(-51,0)	(1,0)	(1,0)	(1,0)	(1,0)	(1,0)	(1,0)	(1,0)	(1,0)	(1,0)	
L1D -160>	(54,2)	(31,1)	(4,1)	(2,1)	(-52,1)	(-121,1)	(8,1)	(1,0)	(1,0)	(1,0)	(1,0)	(1,0)	(1,0)	(1,0)	(1,0)	(1,0)	
L1D -159>	(2,5)	(159,18)	(4,3)	(158,1)	(-4,7)	(-53,1)	(6,1)	(3,1)	(1,0)	(1,0)	(1,0)	(1,0)	(1,0)	(1,0)	(1,0)	(1,0)	
L1D -158>	(2,17)	(3,2)	(8,6)	(160,1)	(-54,1)	(-60,1)	(-1,1)	(6,1)	(-121,1)	(1,0)	(1,0)	(1,0)	(1,0)	(1,0)	(1,0)	(1,0)	
L1D -157>	(1,6)	(4,20)	(54,3)	(-55,1)	(-60,1)	(2,3)	(3,3)	(172,1)	(160,1)	(6,1)	(1,0)	(1,0)	(1,0)	(1,0)	(1,0)	(1,0)	
L1D -156>	(2,21)	(-54,116)	(168,27)	(156,9)	(4,14)	(8,27)	(-56,1)	(3,2)	(-121,1)	(1,0)	(1,0)	(1,0)	(1,0)	(1,0)	(1,0)	(1,0)	
L1D -155>	(-57,2)	(155,9)	(-1,25)	(4,3)	(-60,1)	(6,3)	(2,2)	(-58,1)	(1,0)	(1,0)	(1,0)	(1,0)	(1,0)	(1,0)	(1,0)	(1,0)	
L1D -154>	(154,1)	(2,1)	(-54,11)	(1,1)	(8,6)	(4,8)	(6,3)	(37,1)	(0,1)	(1,0)	(1,0)	(1,0)	(1,0)	(1,0)	(1,0)	(1,0)	
L1D -153>	(8,4)	(153,1)	(2,1)	(-1,1)	(1,0)	(1,0)	(1,0)	(1,0)	(1,0)	(1,0)	(1,0)	(1,0)	(1,0)	(1,0)	(1,0)	(1,0)	
L1D -152>	(-60,1)	(-57,1)	(153,9)	(152,2)	(8,4)	(3,1)	(1,1)	(4,1)	(6,2)	(-3,2)	(1,0)	(1,0)	(1,0)	(1,0)	(1,0)	(1,0)	
L1D -151>	(151,1)	(31,8)	(2,1)	(1,0)	(1,0)	(1,0)	(1,0)	(1,0)	(1,0)	(1,0)	(1,0)	(1,0)	(1,0)	(1,0)	(1,0)	(1,0)	
L1D -150>	(2,7)	(150,7)	(7,2)	(6,21)	(4,4)	(1,1)	(8,2)	(3,1)	(1,0)	(1,0)	(1,0)	(1,0)	(1,0)	(1,0)	(1,0)	(1,0)	
L1D -149>	(1,6)	(-54,8)	(149,2)	(-1,5)	(3,4)	(4,2)	(-242,1)	(5,1)	(1,0)	(1,0)	(1,0)	(1,0)	(1,0)	(1,0)	(1,0)	(1,0)	
L1D -148>	(64,25)	(1,25)	(2,10)	(6,6)	(3,2)	(-54,6)	(159,1)	(4,12)	(7,1)	(-1,3)	(1,0)	(1,0)	(1,0)	(1,0)	(1,0)	(1,0)	
L1D -147>	(2,5)	(159,2)	(1,8)	(4,1)	(1,0)	(1,0)	(1,0)	(1,0)	(1,0)	(1,0)	(1,0)	(1,0)	(1,0)	(1,0)	(1,0)	(1,0)	
L1D -146>	(2,6)	(8,11)	(159,1)	(4,3)	(6,2)	(242,1)	(121,1)	(1,0)	(1,0)	(1,0)	(1,0)	(1,0)	(1,0)	(1,0)	(1,0)	(1,0)	
L1D -145>	(159,1)	(2,1)	(8,1)	(1,0)	(1,0)	(1,0)	(1,0)	(1,0)	(1,0)	(1,0)	(1,0)	(1,0)	(1,0)	(1,0)	(1,0)	(1,0)	
L1D -144>	(8,45)	(6,2)	(2,4)	(159,1)	(326,1)	(256,1)	(1,0)	(1,0)	(1,0)	(1,0)	(1,0)	(1,0)	(1,0)	(1,0)	(1,0)	(1,0)	
L1D -143>	(178,6)	(112,11)	(51,4)	(-1,1)	(1,4)	(131,1)	(159,1)	(31,2)	(4,1)	(1,0)	(1,0)	(1,0)	(1,0)	(1,0)	(1,0)	(1,0)	
L1D -142>	(143,3)	(-1,2)	(-54,1)	(1,1)	(159,1)	(1,0)	(1,0)	(1,0)	(1,0)	(1,0)	(1,0)	(1,0)	(1,0)	(1,0)	(1,0)	(1,0)	
L1D -141>	(142,1)	(8,1)	(54,4)	(143,4)	(2,1)	(6,1)	(1,2)	(0,1)	(159,1)	(1,0)	(1,0)	(1,0)	(1,0)	(1,0)	(1,0)	(1,0)	
L1D -140>	(142,1)	(140,7)	(123,1)	(6,2)	(54,2)	(216,1)	(1,1)	(141,2)	(1,0)	(1,0)	(1,0)	(1,0)	(1,0)	(1,0)	(1,0)	(1,0)	
L1D -139>	(139,2)	(140,4)	(6,1)	(-54,1)	(1,0)	(1,0)	(1,0)	(1,0)	(1,0)	(1,0)	(1,0)	(1,0)	(1,0)	(1,0)	(1,0)	(1,0)	
L1D -138>	(139,2)	(138,3)	(4,2)	(142,7)	(-3,1)	(2,1)	(144,2)	(54,2)	(-242,1)	(1,0)	(1,0)	(1,0)	(1,0)	(1,0)	(1,0)	(1,0)	
L1D -137>	(1,21)	(137,5)	(143,2)	(138,1)	(1,0)	(1,0)	(1,0)	(1,0)	(1,0)	(1,0)	(1,0)	(1,0)	(1,0)	(1,0)	(1,0)	(1,0)	
L1D -136>	(52,26)	(136,1)	(216,7)	(1,5)	(95,1)	(2,1)	(138,1)	(1,0)	(1,0)	(1,0)	(1,0)	(1,0)	(1,0)	(1,0)	(1,0)	(1,0)	
L1D -135>	(135,2)	(1,3)	(51,1)	(1,0)	(1,0)	(1,0)	(1,0)	(1,0)	(1,0)	(1,0)	(1,0)	(1,0)	(1,0)	(1,0)	(1,0)	(1,0)	
L1D -134>	(134,6)	(138,2)	(96,1)	(-242,1)	(1,0)	(1,0)	(1,0)	(1,0)	(1,0)	(1,0)	(1,0)	(1,0)	(1,0)	(1,0)	(1,0)	(1,0)	
L1D -133>	(133,1)	(1,1)	(8,1)	(15,7)	(137,1)	(85,1)	(134,1)	(18,1)	(1,0)	(1,0)	(1,0)	(1,0)	(1,0)	(1,0)	(1,0)	(1,0)	
L1D -132>	(0,10)	(134,3)	(132,1)	(1,33)	(8,4)	(54,3)	(2,1)	(1,0)	(1,0)	(1,0)	(1,0)	(1,0)	(1,0)	(1,0)	(1,0)	(1,0)	
L1D -131>	(2,107)	(132,8)	(131,2)	(1,1)	(4,1)	(3,6)	(121,1)	(1,0)	(1,0)	(1,0)	(1,0)	(1,0)	(1,0)	(1,0)	(1,0)	(1,0)	
L1D -130>	(130,2)	(2,9)	(3,5)	(138,4)	(135,1)	(4,1)	(164,2)	(1,2)	(1,0)	(1,0)	(1,0)	(1,0)	(1,0)	(1,0)	(1,0)	(1,0)	
L1D -129>	(129,114)	(3,3)	(0,43)	(2,7)	(1,2)	(6,1)	(137,1)	(4,1)	(8,1)	(1,0)	(1,0)	(1,0)	(1,0)	(1,0)	(1,0)	(1,0)	
L1D -128>	(128,3)	(-1,23)	(0,5)	(2,17)	(3,3)	(-185,1)	(55,3)	(4,1)	(1,2)	(1,0)	(1,0)	(1,0)	(1,0)	(1,0)	(1,0)	(1,0)	
L1D -127>	(1,6)	(127,8)	(4,12)	(-1,7)	(2,6)	(3,4)	(1,0)	(1,0)	(1,0)	(1,0)	(1,0)	(1,0)	(1,0)	(1,0)	(1,0)	(1,0)	
L1D -126>	(126,4)	(4,2)	(6,1)	(1,0)	(1,0)	(1,0)	(1,0)	(1,0)	(1,0)	(1,0)	(1,0)	(1,0)	(1,0)	(1,0)	(1,0)	(1,0)	
L1D -125>	(1,3)	(125,2)	(2,2)	(126,4)	(4,8)	(54,3)	(6,1)	(1,0)	(1,0)	(1,0)	(1,0)	(1,0)	(1,0)	(1,0)	(1,0)	(1,0)	
L1D -124>	(125,3)	(124,7)	(2,8)	(4,5)	(116,8)	(1,5)	(220,1)	(6,2)	(119,1)	(1,0)	(1,0)	(1,0)	(1,0)	(1,0)	(1,0)	(1,0)	
L1D -123>	(123,2)	(2,3)	(8,1)	(4,6)	(141,1)	(1,2)	(0,1)	(124,1)	(85,1)	(55,1)	(1,0)	(1,0)	(1,0)	(1,0)	(1,0)	(1,0)	
L1D -122>	(2,2)	(122,3)	(53,1)	(1,2)	(8,1)	(4,1)	(54,1)	(1,0)	(1,0)	(1,0)	(1,0)	(1,0)	(1,0)	(1,0)	(1,0)	(1,0)	
L1D -121>	(121,105)	(0,101)	(-121,63)	(242,20)	(-242,36)	(363,18)	(129,22)	(244,8)	(123,17)	(2,22)	(-361,3)	(279,1)	(-119,6)	(-217,1)	(-384,1)	(-58,1)	
L1D -120>	(120,9)	(0,2)	(8,4)	(204,13)	(4,2)	(110,1)	(1,1)	(6,1)	(1,0)	(1,0)	(1,0)	(1,0)	(1,0)	(1,0)	(1,0)	(1,0)	
L1D -119>	(119,8)	(121,21)	(242,5)	(-242,12)	(8,1)	(0,6)	(1,0)	(1,0)	(1,0)	(1,0)	(1,0)	(1,0)	(1,0)	(1,0)	(1,0)	(1,0)	
L1D -118>	(6,2)	(136,1)	(1,0)	(1,0)	(1,0)	(1,0)	(1,0)	(1,0)	(1,0)	(1,0)	(1,0)	(1,0)	(1,0)	(1,0)	(1,0)	(1,0)	
L1D -117>	(54,1)	(2,5)	(0,24)	(119,1)	(75,1)	(1,0)	(1,0)	(1,0)	(1,0)	(1,0)	(1,0)	(1,0)	(1,0)	(1,0)	(1,0)	(1,0)	
L1D -116>	(1,6)	(2,36)	(-6,1)	(4,43)	(3,3)	(204,2)	(6,8)	(74,1)	(-57,2)	(8,4)	(54,1)	(57,1)	(115,2)	(118,1)	(1,0)	(1,0)	
L1D -115>	(55,15)	(2,25)	(4,10)	(204,2)	(8,2)	(6,4)	(20,1)	(1,0)	(1,0)	(1,0)	(1,0)	(1,0)	(1,0)	(1,0)	(1,0)	(1,0)	
L1D -114>	(1,8)	(112,1)	(76,7)	(8,3)	(4,24)	(3,1)	(54,2)	(2,14)	(100,5)	(204,2)	(6,1)	(156,1)	(33,3)	(122,1)	(43,1)	(1,0)	
L1D -113>	(2,2)	(-5,1)	(4,1)	(204,2)	(1,0)	(1,0)	(1,0)	(1,0)	(1,0)	(1,0)	(1,0)	(1,0)	(1,0)	(1,0)	(1,0)	(1,0)	
L1D -112>	(6,9)	(4,11)	(2,16)	(3,34)	(8,13)	(1,5)	(15,2)	(204,2)	(1,0)	(1,0)	(1,0)	(1,0)	(1,0)	(1,0)	(1,0)	(1,0)	
L1D -111>	(0,98)	(1,26)	(3,8)	(2,26)	(4,7)	(-1,4)	(204,2)	(1,0)	(1,0)	(1,0)	(1,0)	(1,0)	(1,0)	(1,0)	(1,0)	(1,0)	
L1D -110>	(2,13)	(0,25)	(57,11)	(4,13)	(-1,1)	(111,1)	(1,7)	(3,1)	(6,1)	(-54,2)	(114,1)	(204,1)	(1,0)	(1,0)	(1,0)	(1,0)	
L1D -109>	(60,1)	(110,1)	(0,9)	(15,8)	(1,4)	(-1,1)	(56,1)	(6,2)	(54,2)	(2,3)	(-24,1)	(8,1)	(-104,1)	(57,1)	(204,2)	(1,0)	
L1D -108>	(55,105)	(109,105)	(113,1)	(57,0)	(-321,0)	(4,1)	(1,2)	(111,3)	(2,1)	(56,2)	(108,1)	(84,0)	(110,9)	(59,2)	(-4,0)	(54,0)	
L1D -107>	(54,84)	(25,1)	(108,5)	(109,16)	(107,0)	(1,8)	(55,1)	(4,1)	(5,0)	(1,0)	(1,0)	(1,0)	(1,0)	(1,0)	(1,0)	(1,0)	
L1D -106>	(1,27)	(2,20)	(106,2)	(18,1)	(84,2)	(108,25)	(109,7)	(55,6)	(-54,1)	(5,4)	(4,2)	(54,1)	(1,0)	(1,0)	(1,0)	(1,0)	
L1D -105>	(105,1)	(109,1)	(4,2)	(2,4)	(0,2)	(108,1)	(-242,1)	(89,1)	(55,1)	(1,0)	(1,0)	(1,0)	(1,0)	(1,0)	(1,0)	(1,0)	
L1D -104>	(0,19)	(104,1)	(157,1)	(52,8)	(96,24)	(54,5)	(1,7)	(8,6)	(4,11)	(124,2)	(121,7)	(5,1)	(6,3)	(220,3)	(-24,1)	(-51,1)	
L1D -103>	(0,99)	(1,57)	(104,9)	(103,1)	(121,1)	(4,12)	(2,9)	(102,1)	(3,24)	(90,1)	(106,1)	(1,0)	(1,0)	(1,0)	(1,0)	(1,0)	
L1D -102>	(102,1)	(52,11)	(0,16)	(1,10)	(3,5)	(-1,7)	(62,4)	(4,5)	(2,1)	(1,0)	(1,0)	(1,0)	(1,0)	(1,0)	(1,0)	(1,0)	
L1D -101>	(69,1)	(0,2)	(1,0)	(1,0)	(1,0)	(1,0)	(1,0)	(1,0)	(1,0)	(1,0)	(1,0)	(1,0)	(1,0)	(1,0)	(1,0)	(1,0)	
L1D -100>	(-8,3)	(82,1)	(1,0)	(1,0)	(1,0)	(1,0)	(1,0)	(1,0)	(1,0)	(1,0)	(1,0)	(1,0)	(1,0)	(1,0)	(1,0)	(1,0)	
L1D -99>	(0,8)	(9,8)	(87,1)	(84,1)	(1,0)	(1,0)	(1,0)	(1,0)	(1,0)	(1,0)	(1,0)	(1,0)	(1,0)	(1,0)	(1,0)	(1,0)	
L1D -98>	(1,5)	(9,75)	(2,1)	(15,7)	(4,1)	(-1,0)	(1,0)	(1,0)	(1,0)	(1,0)	(1,0)	(1,0)	(1,0)	(1,0)	(1,0)	(1,0)	
L1D -97>	(2,11)	(133,1)	(61,9)	(94,6)	(8,2)	(1,2)	(1,0)	(1,0)	(1,0)	(1,0)	(1,0)	(1,0)	(1,0)	(1,0)	(1,0)	(1,0)	
L1D -96>	(-2,2)	(46,10)	(-12,2)	(1,3)	(112,7)	(62,1)	(2,2)	(-32,3)	(-6,3)	(101,2)	(18,2)	(92,2)	(49,1)	(1,0)	(1,0)	(1,0)	
L1D -95>	(1,3)	(80,1)	(61,1)	(34,3)	(4,1)	(101,1)	(-32,4)	(5,1)	(-1,1)	(6,1)	(-20,1)	(3,1)	(1,0)	(1,0)	(1,0)	(1,0)	
L1D -94>	(1,6)	(83,4)	(95,8)	(3,7)	(76,2)	(58,3)	(5,1)	(2,2)	(87,1)	(-68,1)	(4,1)	(6,2)	(133,1)	(0,1)	(1,0)	(1,0)	
L1D -93>	(-1,9)	(-17,16)	(-71,17)	(37,6)	(84,3)	(105,1)	(1,1)	(0,1)	(1,0)	(1,0)	(1,0)	(1,0)	(1,0)	(1,0)	(1,0)	(1,0)	
L1D -92>	(92,9)	(2,1)	(196,1)	(82,2)	(101,1)	(4,1)	(1,0)	(1,0)	(1,0)	(1,0)	(1,0)	(1,0)	(1,0)	(1,0)	(1,0)	(1,0)	
L1D -91>	(91,1)	(5,5)	(92,8)	(-84,2)	(54,2)	(1,0)	(1,0)	(1,0)	(1,0)	(1,0)	(1,0)	(1,0)	(1,0)	(1,0)	(1,0)	(1,0)	
L1D -90>	(2,2)	(0,9)	(-1,1)	(90,1)	(1,3)	(101,5)	(3,1)	(49,17)	(59,16)	(15,8)	(5,2)	(6,1)	(1,0)	(1,0)	(1,0)	(1,0)	
L1D -89>	(90,1)	(89,9)	(5,1)	(6,1)	(1,0)	(1,0)	(1,0)	(1,0)	(1,0)	(1,0)	(1,0)	(1,0)	(1,0)	(1,0)	(1,0)	(1,0)	
L1D -88>	(89,3)	(88,1)	(80,1)	(100,56)	(2,18)	(1,1)	(196,1)	(1,0)	(1,0)	(1,0)	(1,0)	(1,0)	(1,0)	(1,0)	(1,0)	(1,0)	
L1D -87>	(88,1)	(87,1)	(1,1)	(125,1)	(165,3)	(62,1)	(89,7)	(4,8)	(-3,1)	(1,0)	(1,0)	(1,0)	(1,0)	(1,0)	(1,0)	(1,0)	
L1D -86>	(2,31)	(88,1)	(86,1)	(71,24)	(52,22)	(49,1)	(4,15)	(6,18)	(8,5)	(1,8)	(1,0)	(1,0)	(1,0)	(1,0)	(1,0)	(1,0)	
L1D -85>	(1,1)	(2,1)	(85,1)	(3,1)	(129,2)	(-54,1)	(1,0)	(1,0)	(1,0)	(1,0)	(1,0)	(1,0)	(1,0)	(1,0)	(1,0)	(1,0)	
L1D -84>	(1,27)	(-16,1)	(84,1)	(2,7)	(-36,4)	(-38,1)	(-64,8)	(8,4)	(6,15)	(72,7)	(54,2)	(3,1)	(88,1)	(4,1)	(44,1)	(31,1)	
L1D -83>	(83,1)	(91,42)	(26,1)	(79,18)	(-50,2)	(69,1)	(2,3)	(4,1)	(84,1)	(1,0)	(1,0)	(1,0)	(1,0)	(1,0)	(1,0)	(1,0)	
L1D -82>	(2,4)	(83,25)	(82,1)	(-11,16)	(8,1)	(84,3)	(88,11)	(54,2)	(6,8)	(91,2)	(4,5)	(40,5)	(-1,1)	(1,1)	(28,2)	(1,0)	
L1D -81>	(1,1)	(81,11)	(8,7)	(79,6)	(6,1)	(89,1)	(4,1)	(2,1)	(1,0)	(1,0)	(1,0)	(1,0)	(1,0)	(1,0)	(1,0)	(1,0)	
L1D -80>	(80,8)	(22,20)	(6,11)	(2,3)	(86,1)	(72,9)	(5,1)	(1,2)	(4,1)	(1,0)	(1,0)	(1,0)	(1,0)	(1,0)	(1,0)	(1,0)	
L1D -79>	(1,9)	(2,6)	(79,2)	(101,1)	(61,3)	(3,3)	(4,3)	(6,1)	(-1,3)	(1,0)	(1,0)	(1,0)	(1,0)	(1,0)	(1,0)	(1,0)	
L1D -78>	(78,2)	(70,2)	(3,1)	(-104,1)	(-54,3)	(2,2)	(1,1)	(-1,1)	(52,1)	(4,1)	(-36,1)	(1,0)	(1,0)	(1,0)	(1,0)	(1,0)	
L1D -77>	(2,11)	(1,16)	(0,23)	(77,1)	(114,19)	(3,5)	(47,2)	(78,1)	(4,1)	(1,0)	(1,0)	(1,0)	(1,0)	(1,0)	(1,0)	(1,0)	
L1D -76>	(2,17)	(0,19)	(132,9)	(1,20)	(76,6)	(3,2)	(48,7)	(4,3)	(57,2)	(59,61)	(179,2)	(91,4)	(126,1)	(8,1)	(118,2)	(115,1)	
L1D -75>	(76,3)	(75,3)	(77,1)	(59,1)	(8,9)	(12,6)	(5,1)	(15,1)	(47,1)	(4,1)	(2,4)	(-66,1)	(1,0)	(1,0)	(1,0)	(1,0)	
L1D -74>	(32,27)	(0,20)	(-4,10)	(74,2)	(96,5)	(2,8)	(1,8)	(72,4)	(47,7)	(84,1)	(17,1)	(76,1)	(107,3)	(80,1)	(75,3)	(6,1)	
L1D -73>	(0,9)	(73,4)	(81,6)	(54,1)	(67,1)	(46,5)	(-104,4)	(65,4)	(2,2)	(6,3)	(74,1)	(20,1)	(102,1)	(69,1)	(1,0)	(1,0)	
L1D -72>	(1,31)	(0,8)	(2,53)	(72,3)	(50,7)	(4,9)	(73,57)	(55,3)	(6,9)	(-1,1)	(58,1)	(1,0)	(1,0)	(1,0)	(1,0)	(1,0)	
L1D -71>	(71,5)	(55,24)	(-53,3)	(59,9)	(53,1)	(1,0)	(1,0)	(1,0)	(1,0)	(1,0)	(1,0)	(1,0)	(1,0)	(1,0)	(1,0)	(1,0)	
L1D -70>	(12,10)	(9,50)	(2,38)	(70,3)	(1,1)	(8,5)	(-53,2)	(85,1)	(-51,3)	(3,1)	(6,1)	(57,1)	(-12,2)	(52,1)	(1,0)	(1,0)	
L1D -69>	(57,1)	(69,2)	(6,1)	(5,3)	(59,43)	(11,14)	(13,1)	(-53,1)	(8,2)	(52,1)	(1,0)	(1,0)	(1,0)	(1,0)	(1,0)	(1,0)	
L1D -68>	(69,6)	(68,3)	(140,8)	(-4,43)	(12,8)	(105,16)	(63,17)	(1,1)	(2,5)	(116,1)	(6,1)	(-242,1)	(3,1)	(8,2)	(4,2)	(104,1)	
L1D -67>	(63,5)	(67,4)	(0,9)	(59,44)	(31,7)	(-6,52)	(52,2)	(6,3)	(38,14)	(15,8)	(40,10)	(58,1)	(1,0)	(1,0)	(1,0)	(1,0)	
L1D -66>	(-1,20)	(-107,1)	(66,7)	(2,3)	(12,1)	(-2,5)	(3,1)	(68,1)	(4,2)	(-36,1)	(52,2)	(0,1)	(-242,1)	(-55,1)	(63,1)	(70,1)	
L1D -65>	(52,1)	(72,1)	(65,4)	(60,96)	(51,12)	(6,18)	(1,2)	(-81,1)	(2,2)	(17,2)	(159,2)	(8,1)	(57,1)	(1,0)	(1,0)	(1,0)	
L1D -64>	(64,8)	(60,1)	(6,48)	(61,24)	(2,8)	(1,9)	(3,8)	(4,2)	(-5,3)	(8,1)	(37,1)	(-2,1)	(1,0)	(1,0)	(1,0)	(1,0)	
L1D -63>	(-1,52)	(-4,2)	(46,38)	(1,1)	(36,3)	(-28,67)	(63,11)	(0,8)	(52,1)	(62,1)	(66,7)	(-2,1)	(156,1)	(17,1)	(64,1)	(1,0)	
L1D -62>	(2,69)	(108,8)	(88,4)	(4,27)	(-45,24)	(-3,1)	(6,22)	(101,1)	(99,8)	(63,2)	(-206,9)	(188,5)	(111,1)	(8,23)	(12,2)	(185,3)	
L1D -61>	(2,69)	(61,0)	(54,1)	(85,0)	(-1,10)	(32,1)	(-37,2)	(50,1)	(83,4)	(-4,0)	(47,1)	(124,3)	(-31,1)	(-3,0)	(-33,0)	(1,0)	
L1D -60>	(2,41)	(1,9)	(-60,5)	(204,17)	(-23,18)	(60,1)	(0,13)	(-27,3)	(43,48)	(6,67)	(74,79)	(-104,23)	(4,49)	(-28,3)	(-29,3)	(62,13)	
L1D -59>	(1,26)	(2,35)	(42,4)	(-3,1)	(3,37)	(-49,24)	(-6,2)	(60,4)	(24,7)	(35,100)	(90,8)	(54,1)	(6,4)	(15,7)	(5,14)	(-371,2)	
L1D -58>	(4,64)	(2,124)	(60,30)	(35,1)	(12,1)	(37,2)	(41,2)	(22,14)	(62,3)	(64,1)	(1,6)	(57,1)	(10,1)	(5,1)	(110,1)	(1,0)	
L1D -57>	(27,16)	(16,16)	(-371,2)	(1,85)	(73,2)	(57,5)	(3,61)	(58,65)	(6,31)	(107,4)	(5,1)	(59,8)	(68,1)	(2,17)	(83,5)	(109,7)	
L1D -56>	(59,0)	(58,64)	(2,62)	(62,0)	(65,0)	(1,3)	(57,5)	(60,3)	(109,1)	(4,13)	(108,1)	(8,1)	(0,2)	(55,0)	(-264,0)	(50,0)	
L1D -55>	(55,4)	(2,6)	(1,76)	(56,54)	(54,18)	(-376,1)	(109,9)	(0,1)	(61,4)	(6,2)	(108,1)	(57,61)	(58,13)	(66,0)	(15,1)	(59,9)	
L1D -54>	(-266,1)	(-54,25)	(109,12)	(56,74)	(108,2)	(57,7)	(65,3)	(55,104)	(1,11)	(2,71)	(434,3)	(54,9)	(58,3)	(53,34)	(-1,26)	(60,2)	
L1D -53>	(3,2)	(-1,9)	(56,23)	(54,90)	(2,3)	(1,14)	(55,41)	(82,1)	(-54,3)	(77,2)	(53,1)	(4,1)	(58,1)	(0,2)	(-149,0)	(11,0)	
L1D -52>	(56,2)	(54,103)	(-378,2)	(-432,1)	(81,1)	(58,0)	(60,0)	(2,1)	(55,0)	(53,0)	(-1,0)	(64,0)	(10,0)	(1,0)	(1,0)	(1,0)	
L1D -51>	(-1,5)	(54,92)	(11,28)	(126,6)	(66,35)	(57,26)	(60,43)	(7,11)	(-432,8)	(56,1)	(2,4)	(53,23)	(52,3)	(-54,2)	(55,6)	(58,23)	
L1D -50>	(1,8)	(52,45)	(54,121)	(2,4)	(-39,2)	(3,1)	(47,3)	(6,0)	(56,23)	(53,0)	(49,0)	(-60,1)	(432,0)	(33,1)	(-2,2)	(60,1)	
L1D -49>	(2,7)	(-60,1)	(-42,2)	(-39,4)	(-36,1)	(23,6)	(-2,16)	(96,10)	(123,8)	(21,6)	(93,15)	(54,10)	(-35,4)	(-6,1)	(31,1)	(-50,1)	
L1D -48>	(0,27)	(-1,9)	(54,35)	(19,8)	(5,2)	(13,76)	(40,15)	(1,28)	(50,19)	(24,10)	(2,15)	(12,2)	(65,6)	(-2,1)	(4,5)	(3,1)	
L1D -47>	(49,5)	(27,1)	(-1,3)	(1,24)	(-80,18)	(74,1)	(2,5)	(6,8)	(26,1)	(3,3)	(0,1)	(242,1)	(1,0)	(1,0)	(1,0)	(1,0)	
L1D -46>	(45,35)	(2,12)	(15,1)	(1,1)	(-4,4)	(4,13)	(6,10)	(47,1)	(46,4)	(63,1)	(58,2)	(61,6)	(-6,2)	(1,0)	(1,0)	(1,0)	
L1D -45>	(27,3)	(-38,2)	(-5,2)	(-3,2)	(-12,9)	(41,24)	(58,18)	(19,2)	(44,1)	(3,22)	(16,58)	(11,3)	(17,1)	(12,12)	(148,1)	(45,2)	
L1D -44>	(27,0)	(57,0)	(4,0)	(3,2)	(12,0)	(29,0)	(38,0)	(-38,0)	(-2,0)	(46,0)	(-15,14)	(-17,78)	(66,0)	(1,3)	(-12,0)	(24,0)	
L1D -43>	(-1,8)	(38,3)	(1,19)	(60,59)	(74,9)	(-4,4)	(4,12)	(46,1)	(45,2)	(6,2)	(8,1)	(41,2)	(42,1)	(29,1)	(3,1)	(-242,1)	
L1D -42>	(1,2)	(7,24)	(5,1)	(49,17)	(40,2)	(-41,15)	(28,3)	(35,1)	(3,15)	(43,1)	(2,6)	(27,7)	(33,13)	(60,40)	(22,6)	(18,2)	
L1D -41>	(-30,1)	(38,2)	(25,2)	(57,18)	(-17,5)	(-1,5)	(170,1)	(-58,1)	(-13,1)	(-6,2)	(14,2)	(56,1)	(22,10)	(36,1)	(19,14)	(126,3)	
L1D -40>	(8,1)	(38,18)	(42,1)	(10,1)	(1,5)	(2,20)	(-4,4)	(74,7)	(-2,42)	(9,7)	(69,2)	(60,4)	(4,12)	(37,1)	(30,1)	(45,1)	
L1D -39>	(2,3)	(4,2)	(0,6)	(1,7)	(8,1)	(-71,7)	(11,1)	(18,7)	(23,3)	(37,2)	(29,2)	(19,1)	(33,1)	(41,1)	(-36,2)	(107,1)	
L1D -38>	(20,2)	(2,15)	(57,2)	(-2,5)	(-4,1)	(10,2)	(-88,1)	(112,1)	(12,7)	(41,1)	(-56,2)	(46,9)	(-57,1)	(8,2)	(80,1)	(24,1)	
L1D -37>	(-3,1)	(-21,2)	(-61,2)	(-104,4)	(18,2)	(10,1)	(52,1)	(-54,1)	(88,2)	(-17,1)	(26,2)	(27,1)	(29,1)	(2,1)	(-7,1)	(188,1)	
L1D -36>	(38,67)	(-2,1)	(33,2)	(5,4)	(19,0)	(89,2)	(8,14)	(42,2)	(68,2)	(2,2)	(45,0)	(104,1)	(32,1)	(28,3)	(34,3)	(12,2)	
L1D -35>	(-432,30)	(-6,7)	(33,16)	(-9,12)	(88,1)	(30,3)	(8,30)	(53,1)	(-8,8)	(-11,1)	(-7,14)	(0,4)	(-2,6)	(-3,27)	(21,10)	(39,1)	
L1D -34>	(21,1)	(-1,1)	(3,1)	(70,1)	(162,3)	(40,0)	(13,0)	(4,4)	(7,3)	(0,100)	(34,84)	(24,0)	(9,1)	(18,1)	(33,1)	(-128,0)	
L1D -33>	(18,51)	(-13,82)	(35,8)	(28,61)	(161,3)	(-6,18)	(1,11)	(2,22)	(31,29)	(19,23)	(9,6)	(0,9)	(4,1)	(-2,9)	(13,60)	(91,7)	
L1D -32>	(88,5)	(9,1)	(17,2)	(64,5)	(3,5)	(16,14)	(12,27)	(4,6)	(24,4)	(13,103)	(-17,50)	(-1,8)	(7,6)	(-2,3)	(19,12)	(1,12)	
L1D -31>	(43,4)	(-13,11)	(1,12)	(-1,6)	(15,1)	(22,91)	(24,39)	(13,6)	(41,17)	(12,1)	(-59,3)	(26,4)	(16,10)	(50,1)	(31,4)	(2,2)	
L1D -30>	(11,73)	(31,10)	(8,23)	(18,8)	(9,9)	(0,9)	(-4,48)	(158,3)	(57,7)	(29,1)	(58,2)	(-54,4)	(40,44)	(-7,29)	(-88,56)	(46,36)	
L1D -29>	(1,39)	(-5,83)	(5,22)	(15,57)	(-1,4)	(26,1)	(11,127)	(32,86)	(27,127)	(6,31)	(17,59)	(3,9)	(48,5)	(23,14)	(12,113)	(7,85)	
L1D -28>	(4,5)	(57,41)	(24,18)	(-6,15)	(-2,13)	(-1,5)	(21,23)	(12,95)	(-4,15)	(40,2)	(-5,1)	(156,1)	(-73,2)	(131,1)	(42,57)	(-34,1)	
L1D -27>	(1,4)	(9,2)	(7,10)	(-6,16)	(22,8)	(-2,3)	(-9,2)	(18,49)	(15,18)	(3,1)	(19,99)	(21,9)	(-53,1)	(-46,1)	(-3,2)	(11,6)	
L1D -26>	(4,1)	(-2,6)	(21,3)	(17,22)	(-3,1)	(14,53)	(-6,1)	(-7,5)	(20,2)	(9,3)	(2,2)	(18,96)	(-20,1)	(13,1)	(-9,2)	(12,5)	
L1D -25>	(12,47)	(11,1)	(8,42)	(16,18)	(3,28)	(35,9)	(5,49)	(-316,10)	(30,18)	(15,3)	(57,6)	(-74,5)	(-1,3)	(-2,97)	(-35,7)	(88,14)	
L1D -24>	(20,43)	(1,23)	(-1,72)	(12,44)	(4,1)	(23,67)	(19,117)	(22,86)	(0,14)	(10,92)	(18,14)	(8,19)	(15,25)	(-2,20)	(16,14)	(2,33)	
L1D -23>	(1,54)	(4,11)	(-5,1)	(25,7)	(-1,4)	(5,17)	(24,2)	(-9,40)	(8,8)	(15,15)	(6,39)	(22,8)	(10,8)	(2,5)	(151,18)	(3,9)	
L1D -22>	(24,69)	(11,7)	(-7,11)	(13,13)	(26,6)	(6,6)	(-5,5)	(12,6)	(30,0)	(5,6)	(-2,8)	(10,3)	(14,6)	(0,6)	(2,5)	(16,5)	
L1D -21>	(11,17)	(3,1)	(1,17)	(30,7)	(28,24)	(0,10)	(-4,12)	(9,20)	(22,115)	(5,51)	(4,25)	(-48,17)	(37,25)	(-61,13)	(-14,4)	(-11,6)	
L1D -20>	(-2,86)	(6,68)	(16,4)	(20,12)	(-7,11)	(18,34)	(24,10)	(22,2)	(10,23)	(57,18)	(4,40)	(12,37)	(26,21)	(8,56)	(2,16)	(7,10)	
L1D -19>	(-15,8)	(20,4)	(1,9)	(15,32)	(-12,1)	(2,9)	(24,16)	(11,97)	(28,10)	(-6,49)	(0,10)	(-202,9)	(10,23)	(13,28)	(-9,56)	(-13,27)	
L1D -18>	(14,9)	(-8,72)	(10,5)	(0,3)	(-4,30)	(9,1)	(18,3)	(4,12)	(24,24)	(1,3)	(-2,43)	(2,27)	(20,41)	(12,23)	(6,14)	(84,6)	
L1D -17>	(-14,3)	(17,14)	(-9,22)	(11,1)	(-28,2)	(35,10)	(29,17)	(8,3)	(16,9)	(7,3)	(-12,5)	(15,5)	(2,104)	(41,2)	(27,3)	(0,4)	
L1D -16>	(4,17)	(22,16)	(5,1)	(-2,22)	(6,38)	(2,90)	(14,39)	(-4,42)	(-17,56)	(8,16)	(-9,6)	(18,23)	(15,22)	(10,14)	(24,15)	(-6,11)	
L1D -15>	(22,15)	(-4,2)	(-1,33)	(44,2)	(-17,15)	(-7,10)	(18,4)	(-96,2)	(24,4)	(33,7)	(0,3)	(35,121)	(13,4)	(4,12)	(1,5)	(-16,1)	
L1D -14>	(-4,13)	(16,7)	(-6,25)	(6,100)	(19,1)	(-13,48)	(-15,9)	(4,55)	(11,3)	(14,18)	(12,71)	(22,24)	(34,3)	(-8,41)	(9,3)	(-12,20)	
L1D -13>	(1,11)	(0,16)	(-9,1)	(8,7)	(26,7)	(57,11)	(-5,32)	(19,115)	(24,26)	(14,7)	(15,15)	(-43,13)	(23,10)	(-51,8)	(18,8)	(-2,4)	
L1D -12>	(1,20)	(18,5)	(16,42)	(10,115)	(-6,39)	(7,1)	(32,3)	(24,28)	(11,6)	(12,36)	(0,66)	(2,22)	(-4,6)	(4,107)	(8,123)	(6,84)	
L1D -11>	(1,32)	(11,14)	(0,81)	(-3,24)	(10,15)	(-12,8)	(3,4)	(8,68)	(12,10)	(45,43)	(14,14)	(-11,36)	(35,1)	(28,20)	(-62,8)	(13,30)	
L1D -10>	(14,31)	(0,22)	(1,9)	(18,4)	(13,6)	(-22,1)	(26,6)	(6,54)	(10,54)	(-2,6)	(4,11)	(8,32)	(-8,27)	(2,28)	(12,67)	(-6,8)	
L1D -9>	(15,11)	(-7,20)	(2,23)	(22,46)	(3,97)	(-8,4)	(-15,9)	(12,12)	(-3,113)	(-11,11)	(7,46)	(-33,9)	(-44,4)	(1,30)	(-21,2)	(10,10)	
L1D -8>	(57,42)	(-3,32)	(-4,8)	(8,53)	(-16,28)	(0,65)	(-6,9)	(4,49)	(-2,21)	(-12,1)	(12,11)	(94,12)	(-1,17)	(6,48)	(10,120)	(2,6)	
L1D -7>	(6,60)	(35,10)	(-4,95)	(4,11)	(-72,17)	(-3,12)	(7,36)	(16,20)	(-9,25)	(1,68)	(5,1)	(3,85)	(29,17)	(9,52)	(-2,59)	(15,35)	
L1D -6>	(1,26)	(14,40)	(8,45)	(12,51)	(6,88)	(-4,26)	(2,27)	(-7,5)	(0,14)	(26,1)	(10,18)	(4,70)	(-10,20)	(-18,55)	(31,2)	(-6,26)	
L1D -5>	(-8,40)	(4,31)	(5,97)	(-12,15)	(22,10)	(11,21)	(-3,6)	(1,62)	(2,25)	(-1,34)	(7,85)	(9,49)	(-4,23)	(19,1)	(-9,39)	(-7,19)	
L1D -4>	(-2,43)	(2,112)	(8,31)	(24,38)	(6,77)	(4,27)	(1,9)	(10,73)	(-4,54)	(3,15)	(-17,1)	(-8,28)	(-6,42)	(0,30)	(18,13)	(5,8)	
L1D -3>	(5,20)	(4,89)	(0,14)	(8,9)	(1,17)	(9,12)	(-1,34)	(-4,12)	(-7,12)	(-2,45)	(2,24)	(-3,48)	(-8,95)	(6,9)	(3,33)	(22,3)	
L1D -2>	(19,1)	(-3,9)	(-8,6)	(1,13)	(-2,53)	(8,3)	(0,9)	(2,64)	(12,11)	(-7,7)	(-4,19)	(-12,15)	(24,14)	(4,20)	(-1,4)	(6,26)	
L1D -1>	(-52,2)	(-3,8)	(-15,2)	(-4,1)	(2,112)	(-8,2)	(-2,6)	(-53,15)	(1,43)	(16,1)	(-1,60)	(0,18)	(56,19)	(3,67)	(5,5)	(-5,2)	
L1D 0>	(-22,0)	(0,114)	(-5,0)	(173,0)	(-2,0)	(13,0)	(4,0)	(2,0)	(-62,0)	(37,0)	(-1,0)	(20,0)	(-8,0)	(70,0)	(17,0)	(3,0)	
L1D 1>	(1,112)	(-32,1)	(17,1)	(-6,1)	(-252,1)	(-16,22)	(-20,3)	(-28,4)	(3,7)	(15,1)	(-10,1)	(-33,2)	(-21,3)	(4,23)	(2,40)	(24,1)	
L1D 2>	(-484,2)	(9,0)	(-8,0)	(378,3)	(54,18)	(2,117)	(10,1)	(-378,3)	(24,0)	(486,0)	(-54,18)	(484,0)	(-431,0)	(-34,0)	(4,0)	(1,0)	
L1D 3>	(-16,11)	(3,21)	(1,70)	(-18,12)	(24,3)	(17,1)	(-1,35)	(4,5)	(6,17)	(-4,1)	(0,1)	(7,1)	(-431,2)	(82,1)	(2,42)	(-6,21)	
L1D 4>	(-17,5)	(12,2)	(2,117)	(-20,1)	(-2,3)	(-14,4)	(-31,4)	(-6,1)	(-1,12)	(-8,1)	(-3,7)	(6,3)	(8,4)	(1,26)	(4,12)	(-62,0)	
L1D 5>	(5,112)	(-27,8)	(-14,17)	(-1,49)	(15,7)	(1,113)	(0,13)	(2,62)	(-40,3)	(21,1)	(6,7)	(-3,12)	(4,18)	(-2,10)	(3,61)	(-8,107)	
L1D 6>	(-32,2)	(-18,3)	(-17,1)	(8,39)	(14,3)	(-10,2)	(-24,3)	(6,6)	(-4,3)	(2,102)	(-30,1)	(4,13)	(19,1)	(-27,2)	(-8,3)	(-14,13)	
L1D 7>	(-4,22)	(-2,40)	(-16,32)	(3,45)	(0,31)	(-10,8)	(-6,11)	(-1,121)	(-3,39)	(1,109)	(2,123)	(8,54)	(22,1)	(4,43)	(-19,16)	(-12,16)	
L1D 8>	(-6,19)	(4,73)	(-14,70)	(-18,38)	(6,97)	(20,2)	(-12,15)	(-1,27)	(2,96)	(-8,15)	(0,18)	(-9,40)	(-10,21)	(-2,40)	(8,93)	(-4,40)	
L1D 9>	(-8,5)	(-2,64)	(-5,8)	(3,65)	(-20,4)	(1,20)	(-10,19)	(-15,6)	(-3,7)	(-13,1)	(-17,3)	(2,3)	(49,3)	(-1,10)	(-9,7)	(-46,5)	
L1D 10>	(6,1)	(-7,25)	(-8,63)	(0,52)	(-12,64)	(-9,10)	(1,32)	(3,3)	(-6,31)	(2,21)	(12,24)	(-2,17)	(4,18)	(-18,25)	(-4,71)	(-10,61)	
L1D 11>	(-13,8)	(-5,8)	(1,67)	(10,9)	(2,15)	(-20,28)	(-3,15)	(-10,2)	(3,16)	(13,34)	(-8,23)	(29,10)	(-9,10)	(-18,1)	(-11,4)	(-2,3)	
L1D 12>	(-5,7)	(1,46)	(4,13)	(23,1)	(-9,13)	(-16,77)	(2,22)	(-6,27)	(-2,69)	(10,20)	(-7,25)	(-12,59)	(-10,52)	(-8,44)	(-4,37)	(-17,49)	
L1D 13>	(5,5)	(1,84)	(2,13)	(3,97)	(-22,30)	(-20,21)	(44,4)	(8,14)	(-9,20)	(-16,1)	(16,8)	(-1,10)	(-50,12)	(13,22)	(11,29)	(-33,8)	
L1D 14>	(-26,112)	(4,35)	(1,43)	(0,31)	(-27,5)	(3,27)	(-20,6)	(18,2)	(-1,3)	(8,19)	(-10,4)	(-6,3)	(-8,9)	(-12,50)	(10,8)	(-5,17)	
L1D 15>	(-8,5)	(-11,3)	(-16,3)	(-6,45)	(18,4)	(-24,21)	(-19,1)	(5,42)	(22,4)	(20,92)	(-43,4)	(3,26)	(-3,18)	(6,12)	(4,80)	(1,26)	
L1D 16>	(-8,11)	(-10,1)	(1,17)	(0,25)	(-27,112)	(-31,3)	(-14,26)	(-4,10)	(-9,5)	(-2,31)	(-22,21)	(-20,11)	(5,3)	(-24,3)	(-6,13)	(-18,13)	
L1D 17>	(-9,32)	(4,6)	(0,57)	(-3,3)	(-6,62)	(7,1)	(2,3)	(-19,2)	(-1,3)	(-23,10)	(-17,11)	(1,110)	(3,6)	(-12,2)	(50,2)	(12,2)	
L1D 18>	(-3,8)	(-6,95)	(-16,5)	(1,38)	(-12,21)	(-24,5)	(-18,5)	(2,5)	(-14,4)	(6,1)	(4,6)	(8,3)	(-9,26)	(-4,7)	(-8,3)	(-2,15)	
L1D 19>	(-10,4)	(-8,2)	(-30,3)	(-6,1)	(1,13)	(-14,81)	(2,42)	(4,36)	(-60,7)	(-13,7)	(-9,9)	(-1,1)	(-4,3)	(-18,2)	(-31,9)	(-25,14)	
L1D 20>	(-57,3)	(-24,10)	(8,1)	(4,25)	(-2,5)	(1,5)	(-21,5)	(-5,10)	(-16,76)	(-22,9)	(-12,3)	(6,7)	(-14,2)	(-8,35)	(2,18)	(-4,5)	
L1D 21>	(7,25)	(-5,1)	(2,2)	(4,9)	(6,2)	(-22,9)	(-30,13)	(-32,30)	(-8,14)	(-3,5)	(-11,17)	(-16,102)	(15,5)	(-24,6)	(-221,4)	(-21,6)	
L1D 22>	(1,80)	(-28,8)	(-2,5)	(-29,11)	(-24,20)	(-16,18)	(-19,1)	(8,6)	(-33,4)	(-3,3)	(-10,2)	(-5,5)	(-21,12)	(-12,30)	(-14,20)	(-9,24)	
L1D 23>	(1,120)	(-30,5)	(-3,3)	(-9,26)	(-27,3)	(5,2)	(-24,8)	(-10,22)	(-2,61)	(-31,2)	(-18,15)	(4,32)	(-28,3)	(-16,18)	(-282,1)	(-36,2)	
L1D 24>	(1,22)	(6,13)	(-15,20)	(-4,36)	(-8,8)	(-20,34)	(-27,7)	(-17,1)	(-25,5)	(-34,3)	(-22,78)	(-16,59)	(10,3)	(-13,8)	(-14,78)	(-26,3)	
L1D 25>	(1,118)	(-56,13)	(-22,7)	(-3,4)	(-55,2)	(-341,4)	(-20,5)	(4,1)	(-24,1)	(0,4)	(6,10)	(-38,1)	(-1,11)	(10,6)	(24,3)	(2,1)	
L1D 26>	(-14,37)	(20,16)	(-6,97)	(-24,43)	(-4,32)	(1,52)	(-22,6)	(-2,7)	(-28,50)	(2,1)	(13,3)	(-19,5)	(31,14)	(-25,13)	(-20,86)	(6,15)	
L1D 27>	(20,27)	(-10,91)	(-22,3)	(-6,29)	(-26,1)	(-20,68)	(3,13)	(-2,19)	(2,3)	(1,26)	(-31,36)	(-227,4)	(-4,11)	(8,7)	(-9,7)	(-35,7)	
L1D 28>	(1,113)	(-56,21)	(-8,9)	(-1,10)	(-16,68)	(-20,69)	(-32,8)	(-2,74)	(2,36)	(-54,10)	(12,9)	(14,1)	(76,4)	(0,2)	(-26,78)	(-12,2)	
L1D 29>	(-9,3)	(1,86)	(-1,5)	(-6,113)	(7,29)	(-3,24)	(-31,6)	(5,3)	(-27,1)	(-54,2)	(-24,28)	(6,13)	(-19,21)	(-25,7)	(-13,3)	(-33,17)	
L1D 30>	(-1,35)	(-17,1)	(-23,2)	(-2,20)	(-34,35)	(-6,15)	(-16,75)	(-10,14)	(-12,11)	(-19,12)	(28,76)	(2,2)	(-5,4)	(-102,11)	(-96,6)	(1,57)	
L1D 31>	(-29,23)	(-34,5)	(-19,13)	(-28,21)	(-3,38)	(-22,28)	(120,9)	(-90,17)	(13,3)	(4,1)	(8,8)	(18,14)	(-26,3)	(1,44)	(-9,3)	(-45,76)	
L1D 32>	(-96,1)	(-1,2)	(-44,26)	(-30,31)	(29,4)	(0,9)	(-22,10)	(-33,2)	(32,9)	(-20,8)	(-16,10)	(-8,21)	(-58,93)	(-2,32)	(7,2)	(-81,2)	
L1D 33>	(4,7)	(5,1)	(-6,2)	(-34,9)	(-11,9)	(44,24)	(10,22)	(31,2)	(18,7)	(9,8)	(-30,40)	(12,19)	(-1,51)	(1,14)	(7,33)	(40,13)	
L1D 34>	(0,86)	(43,0)	(-5,1)	(-34,91)	(1,4)	(-10,1)	(-19,0)	(28,0)	(-9,0)	(-39,0)	(-28,1)	(-4,0)	(-20,1)	(2,0)	(1,0)	(1,0)	
L1D 35>	(-33,1)	(-6,4)	(-5,1)	(-30,0)	(-29,10)	(-74,0)	(9,6)	(-13,0)	(-16,11)	(1,4)	(-22,1)	(-18,76)	(-17,21)	(-54,0)	(-24,2)	(-20,0)	
L1D 36>	(-8,2)	(-21,1)	(-114,8)	(10,5)	(-6,2)	(-48,4)	(-30,1)	(9,6)	(-20,2)	(3,1)	(5,2)	(2,10)	(-24,9)	(42,1)	(-57,3)	(-53,1)	
L1D 37>	(-58,2)	(-30,1)	(-34,3)	(4,18)	(8,48)	(-46,4)	(-57,12)	(-51,34)	(-19,6)	(9,2)	(-67,2)	(20,1)	(-74,1)	(-12,11)	(35,1)	(7,2)	
L1D 38>	(-2,67)	(19,5)	(22,4)	(31,2)	(-25,1)	(-1,4)	(8,2)	(-163,3)	(-12,3)	(-30,0)	(49,0)	(-7,3)	(-68,6)	(-14,1)	(-6,0)	(7,1)	
L1D 39>	(1,7)	(-42,3)	(-34,1)	(-3,1)	(-4,1)	(15,15)	(-24,2)	(-19,1)	(-53,1)	(-5,52)	(7,4)	(-31,8)	(0,1)	(-22,6)	(-102,4)	(5,2)	
L1D 40>	(1,86)	(-42,36)	(-8,3)	(-3,22)	(-45,2)	(-4,20)	(2,5)	(-23,5)	(-68,44)	(-67,3)	(-24,2)	(-26,10)	(-9,13)	(-76,40)	(-57,40)	(-27,3)	
L1D 41>	(14,5)	(-22,4)	(-4,7)	(7,6)	(-1,19)	(21,2)	(-14,7)	(-51,35)	(9,9)	(-20,1)	(4,4)	(-49,3)	(0,3)	(-16,5)	(-12,21)	(-31,118)	
L1D 42>	(-42,23)	(-31,33)	(-43,1)	(-8,1)	(-19,7)	(0,102)	(-14,14)	(-2,9)	(-35,22)	(-30,2)	(1,9)	(-3,22)	(-108,2)	(11,2)	(-12,4)	(21,1)	
L1D 43>	(-42,2)	(-5,8)	(-3,2)	(24,1)	(-76,4)	(-28,20)	(-24,50)	(-22,1)	(35,3)	(2,7)	(-52,8)	(13,9)	(-19,2)	(-32,1)	(-18,3)	(-161,3)	
L1D 44>	(-2,1)	(-17,9)	(-7,3)	(0,6)	(-3,2)	(1,10)	(-4,4)	(-33,2)	(-26,25)	(58,16)	(-59,27)	(-15,1)	(-28,18)	(7,2)	(-50,1)	(-22,1)	
L1D 45>	(5,2)	(-28,2)	(-19,33)	(-36,2)	(-26,23)	(103,2)	(-29,1)	(-62,17)	(-43,4)	(0,6)	(-35,38)	(15,2)	(-7,1)	(-24,2)	(-17,2)	(13,3)	
L1D 46>	(-19,3)	(-12,2)	(-24,36)	(15,3)	(-27,22)	(32,25)	(66,9)	(20,4)	(-67,20)	(-48,5)	(0,48)	(-8,2)	(19,1)	(-52,2)	(-9,2)	(-22,1)	
L1D 47>	(2,2)	(-8,1)	(20,2)	(24,3)	(12,3)	(-10,19)	(-4,4)	(-86,12)	(-48,2)	(-24,51)	(4,11)	(0,11)	(-34,6)	(-17,1)	(8,1)	(15,7)	
L1D 48>	(-50,9)	(-19,7)	(-3,5)	(-17,48)	(-2,17)	(12,7)	(-20,8)	(0,11)	(-46,4)	(-1,2)	(9,10)	(-32,1)	(-33,1)	(-47,4)	(3,2)	(-21,1)	
L1D 49>	(-4,5)	(-2,37)	(-109,3)	(-63,4)	(3,1)	(52,17)	(-59,28)	(-17,1)	(-24,8)	(-28,2)	(0,6)	(-22,6)	(18,6)	(-16,3)	(2,2)	(78,1)	
L1D 50>	(1,2)	(-2,1)	(33,24)	(20,2)	(14,7)	(-26,13)	(-1,8)	(0,21)	(47,1)	(-49,5)	(-8,7)	(-4,11)	(-41,3)	(-25,2)	(-9,2)	(2,1)	
L1D 51>	(-105,1)	(-54,3)	(3,2)	(-108,8)	(6,19)	(47,11)	(22,4)	(-2,1)	(-16,3)	(-23,6)	(-17,2)	(4,4)	(-107,6)	(0,2)	(-111,2)	(1,2)	
L1D 52>	(-50,118)	(2,118)	(-432,11)	(4,19)	(-430,1)	(-55,1)	(-3,16)	(-108,32)	(13,11)	(64,6)	(-112,1)	(-14,4)	(-52,15)	(-143,15)	(-48,6)	(382,11)	
L1D 53>	(-109,1)	(-54,107)	(2,42)	(-52,7)	(14,2)	(3,25)	(-107,1)	(-108,2)	(29,1)	(25,1)	(-51,1)	(1,5)	(-1,1)	(-53,0)	(-65,0)	(-375,0)	
L1D 54>	(-432,16)	(432,1)	(2,60)	(-96,1)	(434,0)	(380,19)	(382,0)	(-486,2)	(-55,0)	(-53,0)	(-51,0)	(-50,2)	(-52,105)	(-1,0)	(1,0)	(-108,1)	
L1D 55>	(1,6)	(-54,103)	(-53,3)	(-1,19)	(0,1)	(-52,1)	(54,29)	(2,4)	(-55,4)	(-36,0)	(-17,0)	(-60,0)	(4,0)	(-59,0)	(3,1)	(-67,0)	
L1D 56>	(8,0)	(-54,101)	(2,6)	(-55,1)	(-53,0)	(-1,2)	(54,0)	(-52,14)	(4,2)	(-50,2)	(6,0)	(380,0)	(-10,0)	(18,1)	(1,2)	(1,0)	
L1D 57>	(10,3)	(51,1)	(54,1)	(-54,112)	(-59,1)	(2,2)	(23,1)	(-56,4)	(53,1)	(52,1)	(4,1)	(-1,9)	(-55,8)	(5,0)	(1,0)	(-44,61)	
L1D 58>	(-56,83)	(2,26)	(-55,4)	(-54,39)	(-121,0)	(380,0)	(-52,1)	(-57,1)	(-51,0)	(-83,0)	(4,0)	(-26,0)	(1,3)	(6,0)	(1,0)	(1,0)	
L1D 59>	(1,19)	(-54,120)	(31,14)	(-1,7)	(54,34)	(2,33)	(-58,18)	(5,6)	(-63,78)	(-22,96)	(-60,5)	(-55,1)	(-6,7)	(-56,15)	(6,6)	(-57,12)	
L1D 60>	(-54,122)	(2,53)	(-56,10)	(-8,1)	(-120,3)	(-55,2)	(-58,1)	(-29,15)	(54,0)	(6,14)	(14,12)	(-57,1)	(18,1)	(1,0)	(-3,0)	(-15,1)	
L1D 61>	(-60,11)	(-128,1)	(-18,2)	(-67,2)	(-1,7)	(-8,9)	(2,11)	(3,16)	(-63,18)	(-55,3)	(-94,1)	(14,4)	(-54,13)	(-35,1)	(-65,1)	(1,0)	
L1D 62>	(62,27)	(124,27)	(-26,1)	(38,5)	(3,7)	(-54,42)	(2,4)	(0,7)	(-56,31)	(-1,2)	(-74,1)	(1,3)	(-58,1)	(47,2)	(121,1)	(-55,1)	
L1D 63>	(-20,6)	(2,1)	(-6,6)	(-46,2)	(-70,2)	(-98,11)	(0,12)	(-64,1)	(-68,23)	(-10,5)	(-60,11)	(-28,2)	(-84,1)	(-49,1)	(-72,3)	(-30,4)	
L1D 64>	(64,94)	(0,38)	(-35,15)	(-23,3)	(16,1)	(32,5)	(-76,1)	(14,2)	(-245,4)	(-320,14)	(-3,14)	(-54,26)	(-124,5)	(2,2)	(-28,1)	(-48,3)	
L1D 65>	(-66,5)	(-54,41)	(-1,12)	(-64,4)	(23,1)	(-95,1)	(-6,3)	(-67,16)	(-48,15)	(-14,4)	(18,2)	(2,1)	(14,6)	(-104,2)	(-44,3)	(1,0)	
L1D 66>	(0,24)	(-54,21)	(-1,3)	(-65,3)	(-33,43)	(-12,8)	(-47,5)	(-32,40)	(-78,1)	(-70,15)	(-98,16)	(-35,1)	(8,1)	(-64,3)	(1,4)	(-14,1)	
L1D 67>	(-34,27)	(-3,4)	(-1,1)	(2,1)	(-66,1)	(35,1)	(1,8)	(-54,22)	(-64,1)	(-20,1)	(-65,1)	(-26,1)	(59,1)	(-16,1)	(6,1)	(0,1)	
L1D 68>	(2,3)	(-54,4)	(-1,1)	(-67,3)	(34,4)	(15,2)	(6,8)	(-38,1)	(1,2)	(242,1)	(4,1)	(-65,1)	(1,0)	(1,0)	(1,0)	(1,0)	
L1D 69>	(3,10)	(-73,9)	(-74,9)	(-68,3)	(-84,1)	(-83,8)	(-18,2)	(-28,2)	(6,8)	(-67,1)	(-66,4)	(-12,1)	(33,1)	(1,0)	(1,0)	(1,0)	
L1D 70>	(-84,27)	(-432,6)	(-13,81)	(3,19)	(-69,2)	(0,19)	(-6,5)	(6,7)	(-18,1)	(1,1)	(31,1)	(1,0)	(1,0)	(1,0)	(1,0)	(1,0)	
L1D 71>	(-70,3)	(-155,23)	(-76,8)	(1,1)	(-68,5)	(-114,1)	(-3,1)	(-10,2)	(-50,1)	(1,0)	(1,0)	(1,0)	(1,0)	(1,0)	(1,0)	(1,0)	
L1D 72>	(-76,1)	(-71,3)	(16,2)	(-14,16)	(15,8)	(81,3)	(-66,3)	(2,1)	(1,0)	(1,0)	(1,0)	(1,0)	(1,0)	(1,0)	(1,0)	(1,0)	
L1D 73>	(-72,3)	(-14,2)	(-71,1)	(8,35)	(2,20)	(0,1)	(326,2)	(-19,2)	(-20,1)	(-27,2)	(1,0)	(1,0)	(1,0)	(1,0)	(1,0)	(1,0)	
L1D 74>	(-73,2)	(0,6)	(-19,7)	(-2,1)	(-63,69)	(-55,1)	(-9,6)	(-27,21)	(-28,2)	(-114,1)	(29,2)	(-12,3)	(-75,1)	(-71,1)	(1,0)	(1,0)	
L1D 75>	(2,24)	(0,7)	(-74,2)	(4,12)	(-72,2)	(-114,2)	(1,0)	(1,0)	(1,0)	(1,0)	(1,0)	(1,0)	(1,0)	(1,0)	(1,0)	(1,0)	
L1D 76>	(8,51)	(-1,1)	(-75,3)	(-33,7)	(0,6)	(-36,6)	(-54,19)	(-73,3)	(35,2)	(-114,1)	(2,2)	(6,1)	(-91,2)	(1,1)	(-74,3)	(-80,1)	
L1D 77>	(-54,10)	(-76,8)	(2,9)	(4,1)	(0,1)	(1,0)	(1,0)	(1,0)	(1,0)	(1,0)	(1,0)	(1,0)	(1,0)	(1,0)	(1,0)	(1,0)	
L1D 78>	(-54,22)	(-77,2)	(0,12)	(2,2)	(-75,3)	(-42,1)	(-76,5)	(-45,1)	(-94,1)	(-12,1)	(1,1)	(1,0)	(1,0)	(1,0)	(1,0)	(1,0)	
L1D 79>	(8,3)	(-54,9)	(-1,1)	(-78,2)	(-48,11)	(7,2)	(11,7)	(29,3)	(0,1)	(2,4)	(-24,4)	(1,1)	(-7,1)	(1,0)	(1,0)	(1,0)	
L1D 80>	(-79,8)	(50,1)	(-96,1)	(-44,1)	(-18,1)	(0,2)	(2,1)	(1,2)	(35,1)	(1,0)	(1,0)	(1,0)	(1,0)	(1,0)	(1,0)	(1,0)	
L1D 81>	(7,30)	(0,10)	(-80,2)	(-2,12)	(-54,1)	(-70,1)	(1,0)	(1,0)	(1,0)	(1,0)	(1,0)	(1,0)	(1,0)	(1,0)	(1,0)	(1,0)	
L1D 82>	(2,1)	(-81,1)	(-54,8)	(4,8)	(15,2)	(1,6)	(36,1)	(-8,2)	(0,1)	(1,0)	(1,0)	(1,0)	(1,0)	(1,0)	(1,0)	(1,0)	
L1D 83>	(-33,11)	(-18,3)	(-54,11)	(-1,1)	(-82,2)	(1,3)	(-62,23)	(-12,2)	(-81,1)	(-80,7)	(-32,1)	(121,1)	(2,3)	(-28,2)	(-4,1)	(-5,1)	
L1D 84>	(-168,27)	(-156,27)	(-74,9)	(-83,1)	(-17,2)	(4,2)	(2,6)	(9,3)	(-6,1)	(-12,3)	(-94,1)	(6,2)	(-54,1)	(1,0)	(1,0)	(1,0)	
L1D 85>	(3,1)	(-84,1)	(-116,1)	(-82,8)	(10,1)	(-12,1)	(-54,1)	(7,1)	(1,0)	(1,0)	(1,0)	(1,0)	(1,0)	(1,0)	(1,0)	(1,0)	
L1D 86>	(-85,1)	(-87,2)	(-98,9)	(2,1)	(0,1)	(-70,1)	(-8,2)	(11,1)	(1,0)	(1,0)	(1,0)	(1,0)	(1,0)	(1,0)	(1,0)	(1,0)	
L1D 87>	(-17,1)	(-86,1)	(31,1)	(78,1)	(1,0)	(1,0)	(1,0)	(1,0)	(1,0)	(1,0)	(1,0)	(1,0)	(1,0)	(1,0)	(1,0)	(1,0)	
L1D 88>	(-57,27)	(1,2)	(-87,8)	(-17,1)	(-60,7)	(-294,7)	(2,5)	(-70,2)	(-64,1)	(1,0)	(1,0)	(1,0)	(1,0)	(1,0)	(1,0)	(1,0)	
L1D 89>	(2,2)	(-88,1)	(-87,1)	(8,4)	(-86,8)	(26,5)	(4,5)	(38,2)	(-27,1)	(1,0)	(1,0)	(1,0)	(1,0)	(1,0)	(1,0)	(1,0)	
L1D 90>	(-89,2)	(-31,8)	(15,1)	(1,0)	(1,0)	(1,0)	(1,0)	(1,0)	(1,0)	(1,0)	(1,0)	(1,0)	(1,0)	(1,0)	(1,0)	(1,0)	
L1D 91>	(-98,12)	(0,11)	(-70,4)	(-90,1)	(-41,6)	(-61,7)	(-95,1)	(-15,24)	(-34,23)	(-49,3)	(88,3)	(13,1)	(129,2)	(-92,1)	(1,0)	(1,0)	
L1D 92>	(-91,9)	(-89,8)	(2,1)	(-12,2)	(1,0)	(1,0)	(1,0)	(1,0)	(1,0)	(1,0)	(1,0)	(1,0)	(1,0)	(1,0)	(1,0)	(1,0)	
L1D 93>	(-90,15)	(2,1)	(-28,1)	(1,0)	(1,0)	(1,0)	(1,0)	(1,0)	(1,0)	(1,0)	(1,0)	(1,0)	(1,0)	(1,0)	(1,0)	(1,0)	
L1D 94>	(1,2)	(-98,107)	(-70,30)	(0,58)	(-33,6)	(-4,1)	(1,0)	(1,0)	(1,0)	(1,0)	(1,0)	(1,0)	(1,0)	(1,0)	(1,0)	(1,0)	
L1D 95>	(0,8)	(-55,3)	(-54,1)	(5,1)	(1,0)	(1,0)	(1,0)	(1,0)	(1,0)	(1,0)	(1,0)	(1,0)	(1,0)	(1,0)	(1,0)	(1,0)	
L1D 96>	(-86,8)	(63,23)	(-12,5)	(1,7)	(-4,2)	(12,1)	(7,1)	(-65,1)	(-146,1)	(1,0)	(1,0)	(1,0)	(1,0)	(1,0)	(1,0)	(1,0)	
L1D 97>	(15,1)	(2,1)	(1,0)	(1,0)	(1,0)	(1,0)	(1,0)	(1,0)	(1,0)	(1,0)	(1,0)	(1,0)	(1,0)	(1,0)	(1,0)	(1,0)	
L1D 98>	(-12,2)	(-99,1)	(0,1)	(1,0)	(1,0)	(1,0)	(1,0)	(1,0)	(1,0)	(1,0)	(1,0)	(1,0)	(1,0)	(1,0)	(1,0)	(1,0)	
L1D 99>	(-12,8)	(-83,4)	(3,1)	(1,0)	(1,0)	(1,0)	(1,0)	(1,0)	(1,0)	(1,0)	(1,0)	(1,0)	(1,0)	(1,0)	(1,0)	(1,0)	
L1D 100>	(14,3)	(-6,13)	(-16,48)	(7,3)	(-49,1)	(1,0)	(1,0)	(1,0)	(1,0)	(1,0)	(1,0)	(1,0)	(1,0)	(1,0)	(1,0)	(1,0)	
L1D 101>	(28,2)	(-2,1)	(-48,5)	(2,1)	(-62,2)	(3,1)	(1,0)	(1,0)	(1,0)	(1,0)	(1,0)	(1,0)	(1,0)	(1,0)	(1,0)	(1,0)	
L1D 102>	(0,1)	(118,4)	(-27,1)	(-37,1)	(1,0)	(1,0)	(1,0)	(1,0)	(1,0)	(1,0)	(1,0)	(1,0)	(1,0)	(1,0)	(1,0)	(1,0)	
L1D 103>	(-102,1)	(-3,1)	(-1,3)	(-28,1)	(3,1)	(1,0)	(1,0)	(1,0)	(1,0)	(1,0)	(1,0)	(1,0)	(1,0)	(1,0)	(1,0)	(1,0)	
L1D 104>	(-103,2)	(27,1)	(-36,2)	(0,8)	(2,1)	(7,1)	(-82,1)	(-4,1)	(1,0)	(1,0)	(1,0)	(1,0)	(1,0)	(1,0)	(1,0)	(1,0)	
L1D 105>	(-104,1)	(72,2)	(-93,16)	(4,3)	(88,1)	(53,1)	(-21,1)	(3,1)	(1,0)	(1,0)	(1,0)	(1,0)	(1,0)	(1,0)	(1,0)	(1,0)	
L1D 106>	(1,1)	(-105,1)	(53,6)	(-103,7)	(2,1)	(-57,3)	(6,2)	(-51,2)	(-82,2)	(0,1)	(1,0)	(1,0)	(1,0)	(1,0)	(1,0)	(1,0)	
L1D 107>	(-106,2)	(-90,1)	(-28,15)	(-87,1)	(2,2)	(3,1)	(1,0)	(1,0)	(1,0)	(1,0)	(1,0)	(1,0)	(1,0)	(1,0)	(1,0)	(1,0)	
L1D 108>	(-1,0)	(-53,42)	(1,65)	(-107,7)	(2,5)	(-105,1)	(-106,5)	(-51,1)	(3,1)	(-314,3)	(-49,1)	(4,1)	(1,0)	(1,0)	(1,0)	(1,0)	
L1D 109>	(-54,80)	(-108,31)	(-107,4)	(1,4)	(-106,2)	(-53,1)	(2,1)	(-51,0)	(15,0)	(1,0)	(1,0)	(1,0)	(1,0)	(1,0)	(1,0)	(1,0)	
L1D 110>	(2,26)	(13,7)	(4,4)	(-54,30)	(1,19)	(-108,43)	(-109,1)	(-107,11)	(15,1)	(-242,1)	(-49,1)	(-53,3)	(-115,1)	(-52,1)	(1,0)	(1,0)	
L1D 111>	(2,21)	(4,20)	(-317,1)	(-108,8)	(-54,24)	(0,1)	(-428,1)	(-103,1)	(-107,1)	(3,1)	(6,2)	(-432,2)	(1,1)	(1,0)	(1,0)	(1,0)	
L1D 112>	(2,79)	(0,3)	(-12,8)	(-114,4)	(4,33)	(-1,6)	(-54,7)	(66,6)	(-81,2)	(-432,3)	(-378,2)	(-431,2)	(6,1)	(1,0)	(1,0)	(1,0)	
L1D 113>	(-54,11)	(2,12)	(4,9)	(3,1)	(0,5)	(6,2)	(1,1)	(1,0)	(1,0)	(1,0)	(1,0)	(1,0)	(1,0)	(1,0)	(1,0)	(1,0)	
L1D 114>	(-90,9)	(-79,3)	(-18,15)	(4,2)	(-71,1)	(2,4)	(8,2)	(0,1)	(1,0)	(1,0)	(1,0)	(1,0)	(1,0)	(1,0)	(1,0)	(1,0)	
L1D 115>	(1,1)	(63,1)	(28,3)	(-57,1)	(2,1)	(1,0)	(1,0)	(1,0)	(1,0)	(1,0)	(1,0)	(1,0)	(1,0)	(1,0)	(1,0)	(1,0)	
L1D 116>	(57,1)	(-84,8)	(-1,1)	(2,1)	(1,0)	(1,0)	(1,0)	(1,0)	(1,0)	(1,0)	(1,0)	(1,0)	(1,0)	(1,0)	(1,0)	(1,0)	
L1D 117>	(1,0)	(1,0)	(1,0)	(1,0)	(1,0)	(1,0)	(1,0)	(1,0)	(1,0)	(1,0)	(1,0)	(1,0)	(1,0)	(1,0)	(1,0)	(1,0)	
L1D 118>	(15,3)	(0,4)	(-2,2)	(4,1)	(1,0)	(1,0)	(1,0)	(1,0)	(1,0)	(1,0)	(1,0)	(1,0)	(1,0)	(1,0)	(1,0)	(1,0)	
L1D 119>	(0,8)	(-116,1)	(-44,1)	(-14,1)	(70,1)	(1,0)	(1,0)	(1,0)	(1,0)	(1,0)	(1,0)	(1,0)	(1,0)	(1,0)	(1,0)	(1,0)	
L1D 120>	(-119,7)	(-151,8)	(0,1)	(1,1)	(1,0)	(1,0)	(1,0)	(1,0)	(1,0)	(1,0)	(1,0)	(1,0)	(1,0)	(1,0)	(1,0)	(1,0)	
L1D 121>	(2,15)	(-121,99)	(0,59)	(-242,48)	(242,40)	(-363,50)	(121,18)	(-120,8)	(10,8)	(-119,18)	(-240,19)	(25,1)	(-215,1)	(-19,1)	(-170,1)	(-366,1)	
L1D 122>	(-121,4)	(8,1)	(2,1)	(-104,1)	(1,0)	(1,0)	(1,0)	(1,0)	(1,0)	(1,0)	(1,0)	(1,0)	(1,0)	(1,0)	(1,0)	(1,0)	
L1D 123>	(-122,3)	(18,1)	(2,3)	(-50,15)	(-121,36)	(0,20)	(-30,7)	(13,1)	(5,1)	(1,0)	(1,0)	(1,0)	(1,0)	(1,0)	(1,0)	(1,0)	
L1D 124>	(0,11)	(-248,18)	(2,2)	(-123,3)	(63,4)	(6,4)	(96,2)	(17,2)	(-61,4)	(1,0)	(1,0)	(1,0)	(1,0)	(1,0)	(1,0)	(1,0)	
L1D 125>	(-124,4)	(-12,1)	(6,2)	(-122,1)	(1,0)	(1,0)	(1,0)	(1,0)	(1,0)	(1,0)	(1,0)	(1,0)	(1,0)	(1,0)	(1,0)	(1,0)	
L1D 126>	(-125,3)	(-55,5)	(-124,4)	(38,4)	(50,1)	(6,1)	(1,1)	(29,1)	(-63,1)	(1,0)	(1,0)	(1,0)	(1,0)	(1,0)	(1,0)	(1,0)	
L1D 127>	(-126,4)	(-125,4)	(-124,1)	(1,0)	(1,0)	(1,0)	(1,0)	(1,0)	(1,0)	(1,0)	(1,0)	(1,0)	(1,0)	(1,0)	(1,0)	(1,0)	
L1D 128>	(-127,3)	(6,1)	(1,0)	(1,0)	(1,0)	(1,0)	(1,0)	(1,0)	(1,0)	(1,0)	(1,0)	(1,0)	(1,0)	(1,0)	(1,0)	(1,0)	
L1D 129>	(129,88)	(-260,87)	(-129,43)	(-131,43)	(-128,1)	(-86,9)	(-127,2)	(-105,1)	(-170,0)	(1,0)	(1,0)	(1,0)	(1,0)	(1,0)	(1,0)	(1,0)	
L1D 130>	(2,8)	(-129,2)	(4,1)	(6,1)	(-4,1)	(1,0)	(1,0)	(1,0)	(1,0)	(1,0)	(1,0)	(1,0)	(1,0)	(1,0)	(1,0)	(1,0)	
L1D 131>	(-130,1)	(-5,5)	(-63,6)	(-80,1)	(-78,1)	(-132,1)	(-4,1)	(-128,1)	(1,0)	(1,0)	(1,0)	(1,0)	(1,0)	(1,0)	(1,0)	(1,0)	
L1D 132>	(0,9)	(-131,2)	(-129,6)	(-130,1)	(1,0)	(1,0)	(1,0)	(1,0)	(1,0)	(1,0)	(1,0)	(1,0)	(1,0)	(1,0)	(1,0)	(1,0)	
L1D 133>	(-132,1)	(-41,1)	(4,3)	(8,5)	(121,1)	(-5,1)	(6,1)	(1,0)	(1,0)	(1,0)	(1,0)	(1,0)	(1,0)	(1,0)	(1,0)	(1,0)	
L1D 134>	(2,1)	(-133,3)	(-131,8)	(4,1)	(1,0)	(1,0)	(1,0)	(1,0)	(1,0)	(1,0)	(1,0)	(1,0)	(1,0)	(1,0)	(1,0)	(1,0)	
L1D 135>	(-1,2)	(-134,2)	(-3,6)	(3,1)	(70,3)	(121,1)	(-95,1)	(-115,1)	(-2,1)	(1,0)	(1,0)	(1,0)	(1,0)	(1,0)	(1,0)	(1,0)	
L1D 136>	(-135,1)	(-12,1)	(-242,1)	(25,1)	(64,1)	(1,0)	(1,0)	(1,0)	(1,0)	(1,0)	(1,0)	(1,0)	(1,0)	(1,0)	(1,0)	(1,0)	
L1D 137>	(-136,1)	(-134,4)	(6,2)	(1,0)	(1,0)	(1,0)	(1,0)	(1,0)	(1,0)	(1,0)	(1,0)	(1,0)	(1,0)	(1,0)	(1,0)	(1,0)	
L1D 138>	(-137,1)	(6,5)	(4,2)	(-86,1)	(-242,1)	(-135,3)	(1,0)	(1,0)	(1,0)	(1,0)	(1,0)	(1,0)	(1,0)	(1,0)	(1,0)	(1,0)	
L1D 139>	(-138,3)	(-47,2)	(-136,1)	(1,0)	(1,0)	(1,0)	(1,0)	(1,0)	(1,0)	(1,0)	(1,0)	(1,0)	(1,0)	(1,0)	(1,0)	(1,0)	
L1D 140>	(-139,6)	(-38,7)	(-137,5)	(-134,1)	(3,1)	(1,0)	(1,0)	(1,0)	(1,0)	(1,0)	(1,0)	(1,0)	(1,0)	(1,0)	(1,0)	(1,0)	
L1D 141>	(-46,1)	(-138,2)	(1,0)	(1,0)	(1,0)	(1,0)	(1,0)	(1,0)	(1,0)	(1,0)	(1,0)	(1,0)	(1,0)	(1,0)	(1,0)	(1,0)	
L1D 142>	(1,2)	(2,3)	(-141,4)	(-242,1)	(1,0)	(1,0)	(1,0)	(1,0)	(1,0)	(1,0)	(1,0)	(1,0)	(1,0)	(1,0)	(1,0)	(1,0)	
L1D 143>	(2,9)	(1,0)	(1,0)	(1,0)	(1,0)	(1,0)	(1,0)	(1,0)	(1,0)	(1,0)	(1,0)	(1,0)	(1,0)	(1,0)	(1,0)	(1,0)	
L1D 144>	(2,2)	(1,0)	(1,0)	(1,0)	(1,0)	(1,0)	(1,0)	(1,0)	(1,0)	(1,0)	(1,0)	(1,0)	(1,0)	(1,0)	(1,0)	(1,0)	
L1D 145>	(1,0)	(1,0)	(1,0)	(1,0)	(1,0)	(1,0)	(1,0)	(1,0)	(1,0)	(1,0)	(1,0)	(1,0)	(1,0)	(1,0)	(1,0)	(1,0)	
L1D 146>	(-86,1)	(1,0)	(1,0)	(1,0)	(1,0)	(1,0)	(1,0)	(1,0)	(1,0)	(1,0)	(1,0)	(1,0)	(1,0)	(1,0)	(1,0)	(1,0)	
L1D 147>	(-27,1)	(1,0)	(1,0)	(1,0)	(1,0)	(1,0)	(1,0)	(1,0)	(1,0)	(1,0)	(1,0)	(1,0)	(1,0)	(1,0)	(1,0)	(1,0)	
L1D 148>	(-3,1)	(1,0)	(1,0)	(1,0)	(1,0)	(1,0)	(1,0)	(1,0)	(1,0)	(1,0)	(1,0)	(1,0)	(1,0)	(1,0)	(1,0)	(1,0)	
L1D 149>	(0,3)	(1,0)	(1,0)	(1,0)	(1,0)	(1,0)	(1,0)	(1,0)	(1,0)	(1,0)	(1,0)	(1,0)	(1,0)	(1,0)	(1,0)	(1,0)	
L1D 150>	(-149,1)	(0,7)	(-40,1)	(1,0)	(1,0)	(1,0)	(1,0)	(1,0)	(1,0)	(1,0)	(1,0)	(1,0)	(1,0)	(1,0)	(1,0)	(1,0)	
L1D 151>	(-152,2)	(-150,1)	(-212,8)	(-208,1)	(-207,1)	(-206,1)	(-205,1)	(-204,1)	(-203,1)	(-202,1)	(-201,1)	(1,0)	(1,0)	(1,0)	(1,0)	(1,0)	
[...]
L1D 471>	(1,0)	(1,0)	(1,0)	(1,0)	(1,0)	(1,0)	(1,0)	(1,0)	(1,0)	(1,0)	(1,0)	(1,0)	(1,0)	(1,0)	(1,0)	(1,0)	
L1D 472>	(1,0)	(1,0)	(1,0)	(1,0)	(1,0)	(1,0)	(1,0)	(1,0)	(1,0)	(1,0)	(1,0)	(1,0)	(1,0)	(1,0)	(1,0)	(1,0)	
L1D 473>	(1,0)	(1,0)	(1,0)	(1,0)	(1,0)	(1,0)	(1,0)	(1,0)	(1,0)	(1,0)	(1,0)	(1,0)	(1,0)	(1,0)	(1,0)	(1,0)	
L1D 474>	(1,0)	(1,0)	(1,0)	(1,0)	(1,0)	(1,0)	(1,0)	(1,0)	(1,0)	(1,0)	(1,0)	(1,0)	(1,0)	(1,0)	(1,0)	(1,0)	
L1D 475>	(1,0)	(1,0)	(1,0)	(1,0)	(1,0)	(1,0)	(1,0)	(1,0)	(1,0)	(1,0)	(1,0)	(1,0)	(1,0)	(1,0)	(1,0)	(1,0)	
L1D 476>	(-378,1)	(1,0)	(1,0)	(1,0)	(1,0)	(1,0)	(1,0)	(1,0)	(1,0)	(1,0)	(1,0)	(1,0)	(1,0)	(1,0)	(1,0)	(1,0)	
L1D 477>	(1,0)	(1,0)	(1,0)	(1,0)	(1,0)	(1,0)	(1,0)	(1,0)	(1,0)	(1,0)	(1,0)	(1,0)	(1,0)	(1,0)	(1,0)	(1,0)	
L1D 478>	(1,0)	(1,0)	(1,0)	(1,0)	(1,0)	(1,0)	(1,0)	(1,0)	(1,0)	(1,0)	(1,0)	(1,0)	(1,0)	(1,0)	(1,0)	(1,0)	
L1D 479>	(1,0)	(1,0)	(1,0)	(1,0)	(1,0)	(1,0)	(1,0)	(1,0)	(1,0)	(1,0)	(1,0)	(1,0)	(1,0)	(1,0)	(1,0)	(1,0)	
L1D 480>	(1,0)	(1,0)	(1,0)	(1,0)	(1,0)	(1,0)	(1,0)	(1,0)	(1,0)	(1,0)	(1,0)	(1,0)	(1,0)	(1,0)	(1,0)	(1,0)	
L1D 481>	(1,0)	(1,0)	(1,0)	(1,0)	(1,0)	(1,0)	(1,0)	(1,0)	(1,0)	(1,0)	(1,0)	(1,0)	(1,0)	(1,0)	(1,0)	(1,0)	
L1D 482>	(1,0)	(1,0)	(1,0)	(1,0)	(1,0)	(1,0)	(1,0)	(1,0)	(1,0)	(1,0)	(1,0)	(1,0)	(1,0)	(1,0)	(1,0)	(1,0)	
L1D 483>	(1,0)	(1,0)	(1,0)	(1,0)	(1,0)	(1,0)	(1,0)	(1,0)	(1,0)	(1,0)	(1,0)	(1,0)	(1,0)	(1,0)	(1,0)	(1,0)	
L1D 484>	(-482,11)	(2,10)	(0,18)	(-484,6)	(-242,9)	(-432,2)	(-430,2)	(-121,7)	(-119,2)	(1,0)	(1,0)	(1,0)	(1,0)	(1,0)	(1,0)	(1,0)	
L1D 485>	(1,0)	(1,0)	(1,0)	(1,0)	(1,0)	(1,0)	(1,0)	(1,0)	(1,0)	(1,0)	(1,0)	(1,0)	(1,0)	(1,0)	(1,0)	(1,0)	
L1D 486>	(-484,112)	(-432,26)	(-482,1)	(-54,1)	(-2,0)	(2,5)	(-52,0)	(1,0)	(1,0)	(1,0)	(1,0)	(1,0)	(1,0)	(1,0)	(1,0)	(1,0)	
L1D 487>	(1,0)	(1,0)	(1,0)	(1,0)	(1,0)	(1,0)	(1,0)	(1,0)	(1,0)	(1,0)	(1,0)	(1,0)	(1,0)	(1,0)	(1,0)	(1,0)	
L1D 488>	(-432,14)	(-486,31)	(2,6)	(-54,7)	(-484,4)	(-52,2)	(1,0)	(1,0)	(1,0)	(1,0)	(1,0)	(1,0)	(1,0)	(1,0)	(1,0)	(1,0)	
L1D 489>	(1,0)	(1,0)	(1,0)	(1,0)	(1,0)	(1,0)	(1,0)	(1,0)	(1,0)	(1,0)	(1,0)	(1,0)	(1,0)	(1,0)	(1,0)	(1,0)	
L1D 490>	(-486,4)	(1,0)	(1,0)	(1,0)	(1,0)	(1,0)	(1,0)	(1,0)	(1,0)	(1,0)	(1,0)	(1,0)	(1,0)	(1,0)	(1,0)	(1,0)	
L1D 491>	(1,0)	(1,0)	(1,0)	(1,0)	(1,0)	(1,0)	(1,0)	(1,0)	(1,0)	(1,0)	(1,0)	(1,0)	(1,0)	(1,0)	(1,0)	(1,0)	
L1D 492>	(1,0)	(1,0)	(1,0)	(1,0)	(1,0)	(1,0)	(1,0)	(1,0)	(1,0)	(1,0)	(1,0)	(1,0)	(1,0)	(1,0)	(1,0)	(1,0)	
L1D 493>	(1,0)	(1,0)	(1,0)	(1,0)	(1,0)	(1,0)	(1,0)	(1,0)	(1,0)	(1,0)	(1,0)	(1,0)	(1,0)	(1,0)	(1,0)	(1,0)	
L1D 494>	(1,0)	(1,0)	(1,0)	(1,0)	(1,0)	(1,0)	(1,0)	(1,0)	(1,0)	(1,0)	(1,0)	(1,0)	(1,0)	(1,0)	(1,0)	(1,0)	
L1D 495>	(1,0)	(1,0)	(1,0)	(1,0)	(1,0)	(1,0)	(1,0)	(1,0)	(1,0)	(1,0)	(1,0)	(1,0)	(1,0)	(1,0)	(1,0)	(1,0)	
L1D 496>	(1,0)	(1,0)	(1,0)	(1,0)	(1,0)	(1,0)	(1,0)	(1,0)	(1,0)	(1,0)	(1,0)	(1,0)	(1,0)	(1,0)	(1,0)	(1,0)	
L1D 497>	(1,0)	(1,0)	(1,0)	(1,0)	(1,0)	(1,0)	(1,0)	(1,0)	(1,0)	(1,0)	(1,0)	(1,0)	(1,0)	(1,0)	(1,0)	(1,0)	
L1D 498>	(1,0)	(1,0)	(1,0)	(1,0)	(1,0)	(1,0)	(1,0)	(1,0)	(1,0)	(1,0)	(1,0)	(1,0)	(1,0)	(1,0)	(1,0)	(1,0)	
L1D 499>	(1,0)	(1,0)	(1,0)	(1,0)	(1,0)	(1,0)	(1,0)	(1,0)	(1,0)	(1,0)	(1,0)	(1,0)	(1,0)	(1,0)	(1,0)	(1,0)	
L1D 500>	(1,0)	(1,0)	(1,0)	(1,0)	(1,0)	(1,0)	(1,0)	(1,0)	(1,0)	(1,0)	(1,0)	(1,0)	(1,0)	(1,0)	(1,0)	(1,0)	
L1D 501>	(1,0)	(1,0)	(1,0)	(1,0)	(1,0)	(1,0)	(1,0)	(1,0)	(1,0)	(1,0)	(1,0)	(1,0)	(1,0)	(1,0)	(1,0)	(1,0)	
L1D 502>	(1,0)	(1,0)	(1,0)	(1,0)	(1,0)	(1,0)	(1,0)	(1,0)	(1,0)	(1,0)	(1,0)	(1,0)	(1,0)	(1,0)	(1,0)	(1,0)	
L1D 503>	(1,0)	(1,0)	(1,0)	(1,0)	(1,0)	(1,0)	(1,0)	(1,0)	(1,0)	(1,0)	(1,0)	(1,0)	(1,0)	(1,0)	(1,0)	(1,0)	
L1D 504>	(1,0)	(1,0)	(1,0)	(1,0)	(1,0)	(1,0)	(1,0)	(1,0)	(1,0)	(1,0)	(1,0)	(1,0)	(1,0)	(1,0)	(1,0)	(1,0)	
L1D 505>	(1,0)	(1,0)	(1,0)	(1,0)	(1,0)	(1,0)	(1,0)	(1,0)	(1,0)	(1,0)	(1,0)	(1,0)	(1,0)	(1,0)	(1,0)	(1,0)	
L1D 506>	(1,0)	(1,0)	(1,0)	(1,0)	(1,0)	(1,0)	(1,0)	(1,0)	(1,0)	(1,0)	(1,0)	(1,0)	(1,0)	(1,0)	(1,0)	(1,0)	
L1D 507>	(1,0)	(1,0)	(1,0)	(1,0)	(1,0)	(1,0)	(1,0)	(1,0)	(1,0)	(1,0)	(1,0)	(1,0)	(1,0)	(1,0)	(1,0)	(1,0)	
L1D 508>	(1,0)	(1,0)	(1,0)	(1,0)	(1,0)	(1,0)	(1,0)	(1,0)	(1,0)	(1,0)	(1,0)	(1,0)	(1,0)	(1,0)	(1,0)	(1,0)	
L1D 509>	(-507,7)	(1,0)	(1,0)	(1,0)	(1,0)	(1,0)	(1,0)	(1,0)	(1,0)	(1,0)	(1,0)	(1,0)	(1,0)	(1,0)	(1,0)	(1,0)	
L1D 510>	(-508,7)	(1,0)	(1,0)	(1,0)	(1,0)	(1,0)	(1,0)	(1,0)	(1,0)	(1,0)	(1,0)	(1,0)	(1,0)	(1,0)	(1,0)	(1,0)	
L1D 511>	(1,0)	(1,0)	(1,0)	(1,0)	(1,0)	(1,0)	(1,0)	(1,0)	(1,0)	(1,0)	(1,0)	(1,0)	(1,0)	(1,0)	(1,0)	(1,0)	

L2C -64>	(-1,13)	(1,242)	(2,24)	(-3,9)	(-54,1)	(3,13)	(0,5)	(-5,24)	(-8,9)	(7,16)	(4,10)	(54,8)	(-6,13)	(5,5)	(-40,7)	(6,5)	
L2C -63>	(1,213)	(2,3)	(8,1)	(4,2)	(10,2)	(6,3)	(7,2)	(5,4)	(1,0)	(1,0)	(1,0)	(1,0)	(1,0)	(1,0)	(1,0)	(1,0)	
L2C -62>	(1,77)	(45,2)	(47,1)	(54,1)	(4,4)	(63,1)	(1,0)	(1,0)	(1,0)	(1,0)	(1,0)	(1,0)	(1,0)	(1,0)	(1,0)	(1,0)	
L2C -61>	(1,125)	(28,1)	(62,9)	(60,2)	(5,8)	(8,1)	(2,4)	(6,2)	(3,4)	(4,1)	(54,1)	(7,1)	(1,0)	(1,0)	(1,0)	(1,0)	
L2C -60>	(1,90)	(4,3)	(61,9)	(2,3)	(-3,2)	(60,1)	(7,4)	(57,1)	(45,3)	(30,2)	(58,1)	(62,2)	(38,1)	(20,1)	(1,0)	(1,0)	
L2C -59>	(1,96)	(60,12)	(5,1)	(4,2)	(-2,1)	(63,1)	(54,1)	(7,2)	(2,1)	(1,0)	(1,0)	(1,0)	(1,0)	(1,0)	(1,0)	(1,0)	
L2C -58>	(6,1)	(1,71)	(3,2)	(54,3)	(59,8)	(2,3)	(47,1)	(10,1)	(55,1)	(-2,1)	(1,0)	(1,0)	(1,0)	(1,0)	(1,0)	(1,0)	
L2C -57>	(1,103)	(58,9)	(2,4)	(5,1)	(7,4)	(54,4)	(26,1)	(4,2)	(3,1)	(6,1)	(60,1)	(8,1)	(-1,1)	(0,1)	(-6,1)	(1,0)	
L2C -56>	(1,107)	(54,2)	(7,5)	(8,1)	(2,6)	(6,1)	(28,1)	(57,9)	(9,1)	(5,1)	(23,1)	(30,1)	(1,0)	(1,0)	(1,0)	(1,0)	
L2C -55>	(1,101)	(54,2)	(28,1)	(56,11)	(-1,1)	(8,9)	(2,8)	(3,2)	(7,1)	(23,1)	(-8,1)	(57,1)	(4,1)	(61,1)	(1,0)	(1,0)	
L2C -54>	(55,179)	(1,178)	(2,4)	(0,1)	(-3,1)	(57,2)	(3,5)	(59,1)	(7,2)	(48,3)	(52,1)	(56,2)	(4,1)	(-6,1)	(30,1)	(50,2)	
L2C -53>	(54,199)	(1,116)	(2,2)	(3,2)	(0,1)	(55,7)	(-1,1)	(13,1)	(4,3)	(58,0)	(7,4)	(24,0)	(20,0)	(56,0)	(47,0)	(5,3)	
L2C -52>	(53,6)	(1,99)	(2,2)	(9,4)	(52,2)	(5,2)	(60,1)	(3,5)	(-2,1)	(54,3)	(15,1)	(30,1)	(4,1)	(29,1)	(23,1)	(6,1)	
L2C -51>	(1,58)	(2,5)	(42,1)	(57,1)	(9,1)	(3,1)	(7,3)	(54,1)	(35,1)	(-12,1)	(10,1)	(52,3)	(40,1)	(-8,1)	(1,0)	(1,0)	
L2C -50>	(1,72)	(51,3)	(2,6)	(47,1)	(3,2)	(28,1)	(7,2)	(1,0)	(1,0)	(1,0)	(1,0)	(1,0)	(1,0)	(1,0)	(1,0)	(1,0)	
L2C -49>	(48,1)	(49,3)	(50,1)	(1,29)	(53,1)	(4,1)	(16,2)	(-14,2)	(33,1)	(15,1)	(2,1)	(-5,1)	(1,0)	(1,0)	(1,0)	(1,0)	
L2C -48>	(41,1)	(32,10)	(1,61)	(54,3)	(16,4)	(48,3)	(2,2)	(8,5)	(-1,7)	(0,1)	(4,1)	(-2,1)	(-5,1)	(-4,4)	(46,1)	(25,1)	
L2C -47>	(27,32)	(7,12)	(48,78)	(1,61)	(41,2)	(46,1)	(8,4)	(34,2)	(61,1)	(-7,1)	(31,1)	(54,2)	(20,1)	(-2,1)	(6,1)	(29,1)	
L2C -46>	(1,30)	(-7,3)	(12,1)	(54,2)	(2,3)	(31,1)	(41,3)	(15,1)	(16,1)	(32,4)	(7,2)	(23,1)	(55,1)	(47,2)	(-1,1)	(4,1)	
L2C -45>	(1,60)	(0,7)	(15,5)	(2,2)	(-1,6)	(30,6)	(4,1)	(41,2)	(54,2)	(9,1)	(36,1)	(1,0)	(1,0)	(1,0)	(1,0)	(1,0)	
L2C -44>	(1,36)	(7,2)	(11,1)	(37,1)	(33,1)	(45,2)	(-8,1)	(14,1)	(2,1)	(-7,4)	(15,1)	(18,1)	(1,0)	(1,0)	(1,0)	(1,0)	
L2C -43>	(1,51)	(2,1)	(-6,2)	(3,2)	(-1,2)	(-10,1)	(5,1)	(8,2)	(4,1)	(7,3)	(36,2)	(54,1)	(20,1)	(61,1)	(1,0)	(1,0)	
L2C -42>	(-1,18)	(1,19)	(2,1)	(41,1)	(8,2)	(-12,1)	(31,1)	(5,1)	(1,0)	(1,0)	(1,0)	(1,0)	(1,0)	(1,0)	(1,0)	(1,0)	
L2C -41>	(40,2)	(4,3)	(1,41)	(-1,4)	(32,1)	(41,33)	(2,2)	(7,4)	(42,1)	(-4,1)	(15,1)	(1,0)	(1,0)	(1,0)	(1,0)	(1,0)	
L2C -40>	(1,60)	(41,8)	(40,45)	(25,1)	(34,3)	(0,9)	(47,1)	(27,8)	(-13,1)	(7,2)	(-1,4)	(20,1)	(4,1)	(54,1)	(3,2)	(-16,1)	
L2C -39>	(41,1)	(16,1)	(1,59)	(-1,4)	(5,1)	(10,1)	(-6,7)	(7,4)	(31,1)	(40,1)	(21,1)	(37,1)	(8,2)	(25,1)	(2,1)	(27,1)	
L2C -38>	(4,1)	(1,54)	(3,1)	(-6,7)	(27,1)	(7,1)	(45,2)	(2,2)	(15,1)	(12,1)	(5,1)	(1,0)	(1,0)	(1,0)	(1,0)	(1,0)	
L2C -37>	(8,1)	(1,57)	(2,7)	(5,1)	(9,8)	(45,3)	(6,1)	(-1,1)	(7,3)	(1,0)	(1,0)	(1,0)	(1,0)	(1,0)	(1,0)	(1,0)	
L2C -36>	(1,44)	(-6,2)	(25,1)	(36,1)	(31,1)	(28,1)	(6,1)	(7,5)	(4,1)	(5,3)	(15,4)	(-15,1)	(3,2)	(1,0)	(1,0)	(1,0)	
L2C -35>	(1,42)	(3,3)	(2,4)	(7,7)	(29,1)	(-6,1)	(28,1)	(14,1)	(20,1)	(37,1)	(31,1)	(11,1)	(13,1)	(0,1)	(1,0)	(1,0)	
L2C -34>	(1,58)	(-1,8)	(7,4)	(39,2)	(-7,1)	(3,2)	(2,1)	(8,1)	(54,1)	(17,1)	(35,1)	(4,1)	(9,1)	(1,0)	(1,0)	(1,0)	
L2C -33>	(20,2)	(-1,14)	(1,95)	(2,8)	(17,9)	(7,5)	(27,2)	(5,2)	(-10,1)	(-7,1)	(13,2)	(3,2)	(31,5)	(-13,2)	(54,3)	(-6,2)	
L2C -32>	(25,1)	(1,107)	(2,2)	(7,3)	(-7,3)	(16,14)	(32,1)	(46,1)	(-15,1)	(30,1)	(45,1)	(3,1)	(0,2)	(-1,8)	(21,4)	(57,1)	
L2C -31>	(-1,3)	(1,132)	(0,1)	(8,5)	(15,3)	(46,14)	(41,9)	(7,7)	(2,4)	(-2,1)	(16,12)	(-4,1)	(-14,1)	(4,1)	(-11,1)	(54,2)	
L2C -30>	(1,43)	(-16,1)	(15,28)	(45,37)	(-14,1)	(-15,17)	(18,1)	(-1,2)	(46,27)	(16,2)	(-12,1)	(34,2)	(-9,1)	(7,2)	(-30,3)	(-13,1)	
L2C -29>	(1,61)	(-7,3)	(2,2)	(-1,6)	(8,1)	(6,1)	(4,1)	(-16,1)	(0,3)	(-6,2)	(-2,2)	(3,1)	(7,1)	(1,0)	(1,0)	(1,0)	
L2C -28>	(-6,2)	(1,66)	(-1,5)	(0,2)	(-7,14)	(18,1)	(27,1)	(-14,1)	(7,4)	(22,1)	(32,1)	(26,1)	(5,1)	(50,1)	(1,0)	(1,0)	
L2C -27>	(1,47)	(-7,6)	(2,3)	(26,1)	(15,2)	(0,1)	(46,1)	(-1,4)	(48,3)	(9,1)	(7,5)	(16,2)	(27,2)	(5,1)	(3,1)	(54,1)	
L2C -26>	(27,5)	(1,57)	(2,2)	(-37,1)	(30,1)	(7,10)	(13,2)	(0,1)	(-6,1)	(-33,1)	(-13,1)	(3,3)	(-1,1)	(26,3)	(15,1)	(45,1)	
L2C -25>	(3,1)	(1,39)	(7,2)	(-1,3)	(27,1)	(14,1)	(-2,4)	(-19,1)	(23,1)	(8,1)	(2,2)	(-7,2)	(20,1)	(19,1)	(1,0)	(1,0)	
L2C -24>	(1,93)	(2,3)	(-7,3)	(7,3)	(22,2)	(8,2)	(16,4)	(0,9)	(6,1)	(38,1)	(24,3)	(5,1)	(21,1)	(4,2)	(-2,1)	(19,1)	
L2C -23>	(1,86)	(-1,5)	(6,2)	(23,2)	(2,6)	(60,1)	(8,3)	(39,1)	(16,1)	(-7,3)	(30,1)	(7,2)	(-2,1)	(45,1)	(-3,1)	(41,1)	
L2C -22>	(1,93)	(2,13)	(4,9)	(10,8)	(22,12)	(23,6)	(5,2)	(-2,2)	(0,1)	(18,1)	(13,1)	(54,1)	(8,1)	(31,1)	(15,1)	(16,1)	
L2C -21>	(7,4)	(1,94)	(-19,1)	(2,2)	(4,2)	(16,15)	(-7,1)	(8,2)	(15,2)	(14,1)	(-2,4)	(6,2)	(13,2)	(37,1)	(-23,1)	(5,1)	
L2C -20>	(27,84)	(7,64)	(-20,23)	(21,13)	(34,6)	(41,3)	(1,118)	(2,7)	(14,3)	(17,2)	(40,2)	(-1,2)	(-7,1)	(-12,1)	(12,6)	(-4,2)	
L2C -19>	(30,1)	(1,134)	(3,2)	(17,3)	(7,11)	(6,1)	(-7,1)	(-6,1)	(0,7)	(8,1)	(39,1)	(-1,3)	(16,2)	(48,1)	(2,2)	(25,2)	
L2C -18>	(1,105)	(4,4)	(7,3)	(54,1)	(2,9)	(21,3)	(29,1)	(-9,1)	(20,3)	(3,2)	(-18,1)	(9,2)	(11,1)	(-3,1)	(-1,3)	(18,1)	
L2C -17>	(2,6)	(1,97)	(15,3)	(-30,2)	(7,3)	(17,3)	(3,1)	(11,1)	(6,3)	(25,1)	(18,2)	(-3,3)	(-7,1)	(-1,1)	(9,1)	(-17,1)	
L2C -16>	(1,106)	(16,60)	(-15,14)	(15,2)	(2,3)	(-30,5)	(31,6)	(17,3)	(24,4)	(-32,4)	(0,12)	(46,2)	(3,2)	(7,6)	(6,1)	(-14,1)	
L2C -15>	(1,194)	(31,10)	(15,13)	(-15,54)	(30,21)	(45,13)	(-30,14)	(16,7)	(-31,6)	(2,3)	(-16,1)	(9,3)	(-48,9)	(7,2)	(46,5)	(8,2)	
L2C -14>	(11,2)	(1,130)	(20,2)	(-16,1)	(5,2)	(-1,3)	(-31,9)	(-2,1)	(-21,1)	(2,8)	(4,2)	(3,13)	(7,2)	(16,3)	(30,2)	(15,7)	
L2C -13>	(7,37)	(-20,3)	(8,3)	(1,117)	(-7,4)	(20,8)	(2,12)	(39,8)	(-1,1)	(-34,1)	(24,1)	(3,6)	(14,6)	(15,5)	(-22,4)	(5,1)	
L2C -12>	(1,124)	(2,29)	(8,3)	(12,6)	(13,2)	(0,8)	(7,1)	(-22,3)	(-15,8)	(14,3)	(5,2)	(-4,2)	(6,3)	(9,9)	(4,6)	(-2,1)	
L2C -11>	(5,3)	(7,11)	(1,80)	(12,10)	(-4,1)	(-8,6)	(-1,21)	(-24,1)	(27,14)	(2,11)	(-52,2)	(11,4)	(25,3)	(6,8)	(8,11)	(35,1)	
L2C -10>	(11,20)	(1,76)	(-1,20)	(-53,2)	(-3,8)	(7,1)	(2,7)	(8,5)	(0,4)	(6,3)	(10,10)	(-7,7)	(13,4)	(-2,2)	(4,7)	(-11,6)	
L2C -9>	(1,142)	(-11,5)	(2,16)	(-4,51)	(17,2)	(8,2)	(-1,32)	(3,3)	(-3,4)	(10,33)	(7,1)	(11,3)	(9,3)	(14,2)	(-7,7)	(0,23)	
L2C -8>	(1,241)	(3,8)	(-3,2)	(9,26)	(0,12)	(41,2)	(-7,4)	(2,25)	(-1,14)	(-2,6)	(7,5)	(8,1)	(4,4)	(10,6)	(5,5)	(-14,3)	
L2C -7>	(1,139)	(8,54)	(6,6)	(-6,1)	(14,3)	(-7,4)	(16,2)	(4,5)	(15,1)	(3,1)	(-3,1)	(2,22)	(10,3)	(5,6)	(-1,6)	(7,6)	
L2C -6>	(1,121)	(7,198)	(9,2)	(13,1)	(-20,1)	(8,2)	(-1,5)	(0,2)	(-33,2)	(-7,1)	(-40,3)	(2,7)	(-4,2)	(-2,4)	(4,3)	(14,2)	
L2C -5>	(8,5)	(1,173)	(6,11)	(2,10)	(0,59)	(5,7)	(-4,1)	(-3,1)	(3,5)	(41,1)	(4,2)	(-1,6)	(9,1)	(7,2)	(12,1)	(-2,9)	
L2C -4>	(1,140)	(6,9)	(2,32)	(-8,0)	(8,3)	(3,3)	(16,0)	(-1,5)	(9,0)	(0,11)	(5,47)	(4,20)	(-53,1)	(-39,1)	(7,3)	(-10,0)	
L2C -3>	(1,176)	(6,1)	(2,52)	(8,3)	(3,2)	(-1,18)	(11,1)	(-2,6)	(0,10)	(7,7)	(4,30)	(5,5)	(-6,1)	(-43,1)	(21,4)	(-9,3)	
L2C -2>	(1,245)	(5,14)	(4,7)	(7,7)	(-6,8)	(-2,5)	(-4,16)	(2,94)	(16,5)	(0,25)	(-1,53)	(3,37)	(-3,2)	(13,1)	(25,1)	(6,12)	
L2C -1>	(-8,6)	(2,124)	(-2,9)	(3,22)	(5,7)	(-3,15)	(7,6)	(-1,236)	(1,178)	(-4,30)	(9,12)	(4,6)	(13,1)	(14,7)	(8,12)	(0,20)	
L2C 0>	(0,201)	(3,2)	(-12,1)	(4,1)	(1,46)	(10,3)	(2,4)	(-31,2)	(16,2)	(-4,2)	(-16,3)	(-15,3)	(-32,3)	(-8,2)	(-3,1)	(-2,11)	
L2C 1>	(-63,2)	(-19,0)	(1,174)	(-55,1)	(48,2)	(45,0)	(-52,0)	(-47,0)	(4,0)	(-20,0)	(6,0)	(-31,0)	(-43,0)	(2,1)	(5,0)	(-7,0)	
L2C 2>	(1,159)	(-1,7)	(2,13)	(-46,1)	(-52,0)	(-3,1)	(4,0)	(-8,0)	(7,1)	(-9,0)	(0,0)	(-2,2)	(-45,0)	(3,2)	(-6,0)	(-50,0)	
L2C 3>	(1,206)	(2,19)	(6,1)	(0,3)	(-36,1)	(4,5)	(-45,1)	(3,9)	(55,1)	(9,1)	(7,2)	(-2,8)	(-5,3)	(5,1)	(-11,2)	(-3,1)	
L2C 4>	(1,209)	(-2,3)	(3,10)	(-3,5)	(-4,13)	(2,14)	(30,1)	(-37,1)	(4,6)	(7,1)	(-5,2)	(0,3)	(-6,2)	(11,2)	(6,3)	(-38,1)	
L2C 5>	(-7,2)	(1,172)	(3,3)	(-5,1)	(2,8)	(9,2)	(20,1)	(-25,1)	(-1,4)	(-3,2)	(6,1)	(0,6)	(-8,1)	(-4,8)	(8,3)	(-20,1)	
L2C 6>	(1,168)	(-5,14)	(-19,2)	(7,22)	(2,8)	(-26,3)	(3,10)	(-1,3)	(8,11)	(-22,1)	(-15,1)	(-3,5)	(-9,1)	(0,4)	(34,3)	(6,2)	
L2C 7>	(-20,21)	(7,66)	(-6,190)	(4,1)	(1,164)	(2,10)	(9,3)	(-47,8)	(-40,3)	(20,4)	(-8,2)	(8,3)	(5,2)	(6,25)	(-13,12)	(-5,7)	
L2C 8>	(1,182)	(8,42)	(-7,50)	(6,8)	(-6,8)	(-3,3)	(-1,17)	(-2,1)	(16,1)	(15,4)	(7,5)	(-13,9)	(-21,2)	(2,17)	(3,13)	(-32,1)	
L2C 9>	(1,198)	(15,3)	(7,6)	(8,3)	(-2,8)	(-9,4)	(-58,2)	(-6,3)	(2,13)	(0,6)	(9,9)	(39,9)	(-30,2)	(-3,7)	(-13,1)	(-16,2)	
L2C 10>	(1,215)	(11,18)	(3,3)	(-9,7)	(-30,2)	(-10,3)	(-12,9)	(6,1)	(-1,3)	(-54,8)	(2,18)	(-57,1)	(-6,3)	(-3,8)	(7,2)	(8,2)	
L2C 11>	(16,3)	(1,109)	(-9,1)	(-18,1)	(2,3)	(6,3)	(3,4)	(-5,3)	(-16,13)	(-15,17)	(-14,1)	(-11,6)	(-59,8)	(0,21)	(-7,2)	(-10,12)	
L2C 12>	(7,2)	(1,42)	(-25,2)	(16,1)	(0,10)	(-53,1)	(3,6)	(-11,22)	(-6,5)	(-3,1)	(-19,1)	(15,2)	(5,2)	(-2,2)	(-1,2)	(4,1)	
L2C 13>	(1,73)	(7,26)	(-6,8)	(-24,1)	(0,2)	(-12,10)	(16,2)	(3,3)	(-7,2)	(-1,1)	(9,1)	(6,2)	(-5,2)	(-15,2)	(-30,1)	(-14,1)	
L2C 14>	(1,66)	(-20,5)	(-22,1)	(-6,6)	(-13,16)	(34,1)	(0,3)	(3,2)	(-21,1)	(2,16)	(-35,1)	(6,5)	(7,5)	(-49,1)	(-12,2)	(-15,16)	
L2C 15>	(1,102)	(-10,2)	(-31,9)	(-14,4)	(-54,3)	(30,12)	(3,3)	(-30,53)	(16,1)	(-25,2)	(7,1)	(-19,8)	(-4,2)	(-15,7)	(31,3)	(15,11)	
L2C 16>	(1,59)	(-32,6)	(2,5)	(-15,38)	(-48,14)	(-49,7)	(0,30)	(-16,32)	(16,15)	(-1,8)	(-30,2)	(17,3)	(-33,10)	(-47,4)	(-31,16)	(3,3)	
L2C 17>	(16,10)	(-1,1)	(-10,1)	(-7,1)	(1,44)	(-6,1)	(-36,5)	(-17,1)	(-32,3)	(-9,9)	(-13,6)	(-16,5)	(20,1)	(0,8)	(-12,1)	(4,1)	
L2C 18>	(0,2)	(-7,2)	(-33,1)	(5,1)	(1,14)	(-16,1)	(-17,3)	(8,3)	(-35,1)	(-8,1)	(14,1)	(17,1)	(1,0)	(1,0)	(1,0)	(1,0)	
L2C 19>	(2,6)	(1,34)	(-22,7)	(3,12)	(-27,1)	(-24,5)	(0,6)	(25,3)	(7,4)	(-18,1)	(5,1)	(-54,1)	(-7,1)	(-3,1)	(-1,1)	(6,1)	
L2C 20>	(7,12)	(1,87)	(-13,5)	(-28,3)	(24,1)	(-1,5)	(3,1)	(-20,8)	(6,1)	(-14,2)	(2,5)	(-10,1)	(8,2)	(-32,5)	(-26,1)	(13,1)	
L2C 21>	(13,3)	(-1,7)	(1,79)	(-18,6)	(-20,5)	(-7,2)	(7,1)	(-13,4)	(6,2)	(0,1)	(2,3)	(-54,1)	(-6,4)	(9,1)	(8,2)	(-19,1)	
L2C 22>	(-19,20)	(-7,1)	(1,32)	(-1,4)	(-21,3)	(-26,1)	(-13,2)	(-24,4)	(-53,3)	(-3,4)	(0,5)	(-10,5)	(2,5)	(-4,1)	(-27,1)	(-15,1)	
L2C 23>	(4,2)	(1,42)	(-1,4)	(2,6)	(-19,5)	(0,2)	(-28,2)	(-13,2)	(3,1)	(-12,1)	(-22,1)	(-16,1)	(-32,1)	(24,1)	(9,1)	(-8,1)	
L2C 24>	(1,37)	(-1,3)	(-16,2)	(-29,1)	(3,1)	(-13,3)	(2,3)	(-7,1)	(30,1)	(-17,1)	(8,2)	(-24,4)	(-31,1)	(-32,1)	(-2,1)	(-37,1)	
L2C 25>	(-25,1)	(1,29)	(-7,17)	(-5,8)	(4,1)	(-1,3)	(9,2)	(-30,1)	(-26,1)	(11,2)	(-11,1)	(5,1)	(-42,1)	(-6,1)	(14,1)	(-10,1)	
L2C 26>	(1,25)	(-7,7)	(9,1)	(8,4)	(3,1)	(-1,8)	(6,2)	(-63,1)	(-15,1)	(1,0)	(1,0)	(1,0)	(1,0)	(1,0)	(1,0)	(1,0)	
L2C 27>	(-20,77)	(-47,12)	(-32,2)	(-53,1)	(6,2)	(-13,1)	(2,1)	(-27,1)	(7,33)	(-6,1)	(-40,1)	(1,11)	(3,2)	(-52,1)	(16,3)	(-16,12)	
L2C 28>	(-7,4)	(3,1)	(-9,1)	(1,11)	(7,1)	(-16,5)	(0,7)	(-1,1)	(-27,1)	(-33,1)	(6,1)	(2,1)	(-39,1)	(-30,1)	(9,1)	(1,0)	
L2C 29>	(-39,1)	(1,10)	(-28,1)	(-15,2)	(-54,1)	(-22,1)	(0,2)	(-32,2)	(-8,1)	(7,1)	(-1,1)	(1,0)	(1,0)	(1,0)	(1,0)	(1,0)	
L2C 30>	(-41,9)	(-15,41)	(1,11)	(-1,2)	(-20,8)	(16,2)	(30,4)	(-52,2)	(15,4)	(0,2)	(-45,3)	(-60,3)	(-40,1)	(-30,2)	(5,1)	(-55,1)	
L2C 31>	(1,13)	(-30,2)	(-31,4)	(15,2)	(-16,2)	(-15,12)	(-25,1)	(16,2)	(-63,1)	(30,1)	(-2,1)	(4,1)	(3,1)	(-1,1)	(8,1)	(0,1)	
L2C 32>	(16,9)	(0,1)	(1,24)	(-33,1)	(-16,1)	(-3,1)	(-38,1)	(-31,5)	(-1,1)	(-32,5)	(-25,1)	(-23,1)	(-8,2)	(-40,1)	(-41,1)	(1,0)	
L2C 33>	(4,1)	(-6,1)	(-12,1)	(1,7)	(0,1)	(16,1)	(7,1)	(-18,1)	(-1,2)	(2,1)	(-63,1)	(14,1)	(-42,1)	(1,0)	(1,0)	(1,0)	
L2C 34>	(7,9)	(-47,2)	(-31,9)	(1,5)	(3,1)	(-23,1)	(-41,2)	(16,1)	(6,2)	(-1,1)	(-52,1)	(1,0)	(1,0)	(1,0)	(1,0)	(1,0)	
L2C 35>	(1,4)	(-5,1)	(-28,1)	(-27,2)	(2,1)	(-30,1)	(-52,1)	(-4,1)	(-40,1)	(1,0)	(1,0)	(1,0)	(1,0)	(1,0)	(1,0)	(1,0)	
L2C 36>	(1,9)	(-41,4)	(-12,8)	(-40,3)	(-33,1)	(-16,1)	(-27,1)	(-50,1)	(1,0)	(1,0)	(1,0)	(1,0)	(1,0)	(1,0)	(1,0)	(1,0)	
L2C 37>	(1,10)	(-40,2)	(-36,3)	(-41,6)	(-27,1)	(14,2)	(-52,1)	(-30,1)	(1,0)	(1,0)	(1,0)	(1,0)	(1,0)	(1,0)	(1,0)	(1,0)	
L2C 38>	(-5,1)	(-23,1)	(-54,1)	(-31,1)	(-39,1)	(1,1)	(-42,1)	(-52,1)	(-2,1)	(1,0)	(1,0)	(1,0)	(1,0)	(1,0)	(1,0)	(1,0)	
L2C 39>	(8,10)	(1,11)	(-40,2)	(-32,1)	(-45,1)	(-2,1)	(-1,1)	(-12,1)	(1,0)	(1,0)	(1,0)	(1,0)	(1,0)	(1,0)	(1,0)	(1,0)	
L2C 40>	(-40,31)	(-41,12)	(16,1)	(7,1)	(2,2)	(-35,1)	(1,1)	(0,7)	(8,2)	(-46,1)	(-45,1)	(-23,2)	(-28,2)	(1,0)	(1,0)	(1,0)	
L2C 41>	(-40,26)	(-20,1)	(-47,3)	(-58,1)	(11,1)	(1,15)	(-41,33)	(-39,2)	(-53,1)	(-46,1)	(-6,2)	(-59,1)	(2,1)	(1,0)	(1,0)	(1,0)	
L2C 42>	(-1,1)	(1,6)	(-13,1)	(-40,1)	(1,0)	(1,0)	(1,0)	(1,0)	(1,0)	(1,0)	(1,0)	(1,0)	(1,0)	(1,0)	(1,0)	(1,0)	
L2C 43>	(-16,2)	(-32,1)	(-30,1)	(-6,1)	(1,2)	(-18,1)	(-50,1)	(-31,1)	(1,0)	(1,0)	(1,0)	(1,0)	(1,0)	(1,0)	(1,0)	(1,0)	
L2C 44>	(-15,1)	(-30,2)	(-28,1)	(1,7)	(-54,1)	(1,0)	(1,0)	(1,0)	(1,0)	(1,0)	(1,0)	(1,0)	(1,0)	(1,0)	(1,0)	(1,0)	
L2C 45>	(-16,2)	(-15,9)	(-30,18)	(-46,1)	(-53,5)	(-60,1)	(-47,1)	(-14,2)	(-2,1)	(1,4)	(-32,1)	(1,0)	(1,0)	(1,0)	(1,0)	(1,0)	
L2C 46>	(-16,5)	(-30,6)	(-45,1)	(1,3)	(-41,1)	(-15,6)	(-54,1)	(-28,1)	(-24,1)	(-31,2)	(-1,1)	(1,0)	(1,0)	(1,0)	(1,0)	(1,0)	
L2C 47>	(1,18)	(-50,1)	(4,1)	(-41,1)	(-20,1)	(-48,6)	(-46,4)	(-32,1)	(-53,6)	(-52,1)	(7,2)	(1,0)	(1,0)	(1,0)	(1,0)	(1,0)	
L2C 48>	(-47,85)	(1,21)	(-45,1)	(-52,2)	(-39,1)	(-53,2)	(-49,6)	(2,3)	(-54,2)	(7,2)	(-56,1)	(-55,2)	(-60,1)	(1,0)	(1,0)	(1,0)	
L2C 49>	(-48,6)	(-16,3)	(1,11)	(-47,2)	(-63,1)	(1,0)	(1,0)	(1,0)	(1,0)	(1,0)	(1,0)	(1,0)	(1,0)	(1,0)	(1,0)	(1,0)	
L2C 50>	(-5,1)	(-49,7)	(1,25)	(-48,2)	(-54,1)	(-62,1)	(1,0)	(1,0)	(1,0)	(1,0)	(1,0)	(1,0)	(1,0)	(1,0)	(1,0)	(1,0)	
L2C 51>	(-52,1)	(-53,1)	(1,21)	(-50,7)	(-54,1)	(-49,2)	(1,0)	(1,0)	(1,0)	(1,0)	(1,0)	(1,0)	(1,0)	(1,0)	(1,0)	(1,0)	
L2C 52>	(1,34)	(-50,1)	(-51,14)	(0,1)	(1,0)	(1,0)	(1,0)	(1,0)	(1,0)	(1,0)	(1,0)	(1,0)	(1,0)	(1,0)	(1,0)	(1,0)	
L2C 53>	(1,39)	(-51,1)	(-52,14)	(-54,1)	(2,1)	(-53,1)	(1,0)	(1,0)	(1,0)	(1,0)	(1,0)	(1,0)	(1,0)	(1,0)	(1,0)	(1,0)	
L2C 54>	(1,31)	(-53,188)	(-39,2)	(-13,1)	(-52,2)	(2,1)	(-63,1)	(4,0)	(-48,0)	(-47,0)	(7,0)	(1,0)	(1,0)	(1,0)	(1,0)	(1,0)	
L2C 55>	(-54,203)	(6,1)	(-53,24)	(-52,4)	(1,61)	(-6,1)	(-50,2)	(-9,1)	(-51,1)	(-1,1)	(-61,1)	(2,1)	(-55,1)	(-39,1)	(-44,1)	(1,0)	
L2C 56>	(1,30)	(-55,15)	(-51,1)	(-38,1)	(-54,5)	(-5,1)	(-53,1)	(-37,1)	(1,0)	(1,0)	(1,0)	(1,0)	(1,0)	(1,0)	(1,0)	(1,0)	
L2C 57>	(-2,1)	(-56,13)	(1,18)	(-54,1)	(-53,1)	(1,0)	(1,0)	(1,0)	(1,0)	(1,0)	(1,0)	(1,0)	(1,0)	(1,0)	(1,0)	(1,0)	
L2C 58>	(1,15)	(-57,8)	(-56,2)	(-55,2)	(-53,1)	(-54,1)	(1,0)	(1,0)	(1,0)	(1,0)	(1,0)	(1,0)	(1,0)	(1,0)	(1,0)	(1,0)	
L2C 59>	(1,10)	(-53,1)	(-57,3)	(-58,2)	(-41,1)	(-47,1)	(1,0)	(1,0)	(1,0)	(1,0)	(1,0)	(1,0)	(1,0)	(1,0)	(1,0)	(1,0)	
L2C 60>	(1,13)	(-46,1)	(-59,7)	(-48,1)	(-60,3)	(-62,1)	(-15,2)	(1,0)	(1,0)	(1,0)	(1,0)	(1,0)	(1,0)	(1,0)	(1,0)	(1,0)	
L2C 61>	(-60,8)	(1,3)	(-7,1)	(-59,1)	(-61,1)	(1,0)	(1,0)	(1,0)	(1,0)	(1,0)	(1,0)	(1,0)	(1,0)	(1,0)	(1,0)	(1,0)	
L2C 62>	(-61,6)	(-59,1)	(-57,1)	(1,1)	(-58,1)	(-55,1)	(1,0)	(1,0)	(1,0)	(1,0)	(1,0)	(1,0)	(1,0)	(1,0)	(1,0)	(1,0)	
L2C 63>	(-57,1)	(-52,1)	(1,0)	(1,0)	(1,0)	(1,0)	(1,0)	(1,0)	(1,0)	(1,0)	(1,0)	(1,0)	(1,0)	(1,0)	(1,0)	(1,0)	

DRAM Statistics
 CHANNEL 0
 RQ ROW_BUFFER_HIT:      21100  ROW_BUFFER_MISS:      13902
 DBUS_CONGESTED:      23853
 WQ ROW_BUFFER_HIT:       1071  ROW_BUFFER_MISS:       3951  FULL:          0

 AVG_CONGESTED_CYCLE: 6
