
*** ChampSim Multicore Out-of-Order Simulator ***

Warmup Instructions: 1000000
Simulation Instructions: 10000000
Number of CPUs: 1
LLC sets: 2048
LLC ways: 16
Off-chip DRAM Size: 4096 MB Channels: 1 Width: 64-bit Data Rate: 3200 MT/s

CPU 0 runs /home/aniket/Desktop/sem/cs622/cs622-project/champsim/dpc3_traces/631.deepsjeng_s-928B.champsimtrace.xz
Ultra pref. initializing...
Ultra pref. initialized
Ultra pref. initializing...
Ultra pref. initialized

Warmup complete CPU 0 instructions: 1000004 cycles: 690534 (Simulation time: 0 hr 0 min 1 sec) 

Heartbeat CPU 0 instructions: 10000003 cycles: 17594973 heartbeat IPC: 0.568344 cumulative IPC: 0.532404 (Simulation time: 0 hr 0 min 23 sec) 
Finished CPU 0 instructions: 10000001 cycles: 18836129 cumulative IPC: 0.530895 (Simulation time: 0 hr 0 min 25 sec) 

CPU 0 Branch Prediction Accuracy: 91.5068% MPKI: 9.4134 Average ROB Occupancy at Mispredict: 91.0614

ChampSim completed all CPUs

Region of Interest Statistics

CPU 0 cumulative IPC: 0.530895 instructions: 10000001 cycles: 18836129
L1D TOTAL     ACCESS:    5350349  HIT:    5319383  MISS:      30966
L1D LOAD      ACCESS:    1828835  HIT:    1822445  MISS:       6390
L1D RFO       ACCESS:    1184787  HIT:    1181248  MISS:       3539
L1D PREFETCH  ACCESS:    2336727  HIT:    2315690  MISS:      21037
L1D WRITEBACK ACCESS:          0  HIT:          0  MISS:          0
L1D PREFETCH  REQUESTED:   18750061  ISSUED:   17972301  USEFUL:       4026  USELESS:      20806
L1D AVERAGE MISS LATENCY: 24540.9 cycles
L1I TOTAL     ACCESS:    2050906  HIT:    2042693  MISS:       8213
L1I LOAD      ACCESS:    2050906  HIT:    2042693  MISS:       8213
L1I RFO       ACCESS:          0  HIT:          0  MISS:          0
L1I PREFETCH  ACCESS:          0  HIT:          0  MISS:          0
L1I WRITEBACK ACCESS:          0  HIT:          0  MISS:          0
L1I PREFETCH  REQUESTED:          0  ISSUED:          0  USEFUL:          0  USELESS:          0
L1I AVERAGE MISS LATENCY: 12.1979 cycles
L2C TOTAL     ACCESS:     203596  HIT:     176206  MISS:      27390
L2C LOAD      ACCESS:      14536  HIT:      12209  MISS:       2327
L2C RFO       ACCESS:       3527  HIT:       3315  MISS:        212
L2C PREFETCH  ACCESS:     177870  HIT:     153022  MISS:      24848
L2C WRITEBACK ACCESS:       7663  HIT:       7660  MISS:          3
L2C PREFETCH  REQUESTED:     546665  ISSUED:     417709  USEFUL:       1454  USELESS:      23768
L2C AVERAGE MISS LATENCY: 152.735 cycles
LLC TOTAL     ACCESS:      29201  HIT:       3710  MISS:      25491
LLC LOAD      ACCESS:       2325  HIT:        104  MISS:       2221
LLC RFO       ACCESS:        211  HIT:         76  MISS:        135
LLC PREFETCH  ACCESS:      24851  HIT:       1724  MISS:      23127
LLC WRITEBACK ACCESS:       1814  HIT:       1806  MISS:          8
LLC PREFETCH  REQUESTED:          0  ISSUED:          0  USEFUL:         87  USELESS:       3933
LLC AVERAGE MISS LATENCY: 131.643 cycles
Major fault: 0 Minor fault: 1898

L1D -512>	(1,7)	(10,3)	(4,51)	(-6,4)	(-7,0)	(6,13)	(-2,0)	(-183,0)	(-52,0)	(8,0)	(-318,0)	(5,0)	(0,88)	(-131,0)	(3,51)	(-1,1)	
L1D -511>	(1,0)	(1,0)	(1,0)	(1,0)	(1,0)	(1,0)	(1,0)	(1,0)	(1,0)	(1,0)	(1,0)	(1,0)	(1,0)	(1,0)	(1,0)	(1,0)	
L1D -510>	(1,0)	(1,0)	(1,0)	(1,0)	(1,0)	(1,0)	(1,0)	(1,0)	(1,0)	(1,0)	(1,0)	(1,0)	(1,0)	(1,0)	(1,0)	(1,0)	
L1D -509>	(1,0)	(1,0)	(1,0)	(1,0)	(1,0)	(1,0)	(1,0)	(1,0)	(1,0)	(1,0)	(1,0)	(1,0)	(1,0)	(1,0)	(1,0)	(1,0)	
L1D -508>	(1,0)	(1,0)	(1,0)	(1,0)	(1,0)	(1,0)	(1,0)	(1,0)	(1,0)	(1,0)	(1,0)	(1,0)	(1,0)	(1,0)	(1,0)	(1,0)	
L1D -507>	(1,0)	(1,0)	(1,0)	(1,0)	(1,0)	(1,0)	(1,0)	(1,0)	(1,0)	(1,0)	(1,0)	(1,0)	(1,0)	(1,0)	(1,0)	(1,0)	
L1D -506>	(1,0)	(1,0)	(1,0)	(1,0)	(1,0)	(1,0)	(1,0)	(1,0)	(1,0)	(1,0)	(1,0)	(1,0)	(1,0)	(1,0)	(1,0)	(1,0)	
L1D -505>	(1,0)	(1,0)	(1,0)	(1,0)	(1,0)	(1,0)	(1,0)	(1,0)	(1,0)	(1,0)	(1,0)	(1,0)	(1,0)	(1,0)	(1,0)	(1,0)	
L1D -504>	(1,0)	(1,0)	(1,0)	(1,0)	(1,0)	(1,0)	(1,0)	(1,0)	(1,0)	(1,0)	(1,0)	(1,0)	(1,0)	(1,0)	(1,0)	(1,0)	
L1D -503>	(1,0)	(1,0)	(1,0)	(1,0)	(1,0)	(1,0)	(1,0)	(1,0)	(1,0)	(1,0)	(1,0)	(1,0)	(1,0)	(1,0)	(1,0)	(1,0)	
L1D -502>	(1,0)	(1,0)	(1,0)	(1,0)	(1,0)	(1,0)	(1,0)	(1,0)	(1,0)	(1,0)	(1,0)	(1,0)	(1,0)	(1,0)	(1,0)	(1,0)	
L1D -501>	(1,0)	(1,0)	(1,0)	(1,0)	(1,0)	(1,0)	(1,0)	(1,0)	(1,0)	(1,0)	(1,0)	(1,0)	(1,0)	(1,0)	(1,0)	(1,0)	
L1D -500>	(1,0)	(1,0)	(1,0)	(1,0)	(1,0)	(1,0)	(1,0)	(1,0)	(1,0)	(1,0)	(1,0)	(1,0)	(1,0)	(1,0)	(1,0)	(1,0)	
L1D -499>	(1,0)	(1,0)	(1,0)	(1,0)	(1,0)	(1,0)	(1,0)	(1,0)	(1,0)	(1,0)	(1,0)	(1,0)	(1,0)	(1,0)	(1,0)	(1,0)	
L1D -498>	(1,0)	(1,0)	(1,0)	(1,0)	(1,0)	(1,0)	(1,0)	(1,0)	(1,0)	(1,0)	(1,0)	(1,0)	(1,0)	(1,0)	(1,0)	(1,0)	
L1D -497>	(1,0)	(1,0)	(1,0)	(1,0)	(1,0)	(1,0)	(1,0)	(1,0)	(1,0)	(1,0)	(1,0)	(1,0)	(1,0)	(1,0)	(1,0)	(1,0)	
L1D -496>	(1,0)	(1,0)	(1,0)	(1,0)	(1,0)	(1,0)	(1,0)	(1,0)	(1,0)	(1,0)	(1,0)	(1,0)	(1,0)	(1,0)	(1,0)	(1,0)	
L1D -495>	(1,0)	(1,0)	(1,0)	(1,0)	(1,0)	(1,0)	(1,0)	(1,0)	(1,0)	(1,0)	(1,0)	(1,0)	(1,0)	(1,0)	(1,0)	(1,0)	
L1D -494>	(1,0)	(1,0)	(1,0)	(1,0)	(1,0)	(1,0)	(1,0)	(1,0)	(1,0)	(1,0)	(1,0)	(1,0)	(1,0)	(1,0)	(1,0)	(1,0)	
L1D -493>	(1,0)	(1,0)	(1,0)	(1,0)	(1,0)	(1,0)	(1,0)	(1,0)	(1,0)	(1,0)	(1,0)	(1,0)	(1,0)	(1,0)	(1,0)	(1,0)	
L1D -492>	(1,0)	(1,0)	(1,0)	(1,0)	(1,0)	(1,0)	(1,0)	(1,0)	(1,0)	(1,0)	(1,0)	(1,0)	(1,0)	(1,0)	(1,0)	(1,0)	
L1D -491>	(1,0)	(1,0)	(1,0)	(1,0)	(1,0)	(1,0)	(1,0)	(1,0)	(1,0)	(1,0)	(1,0)	(1,0)	(1,0)	(1,0)	(1,0)	(1,0)	
L1D -490>	(1,0)	(1,0)	(1,0)	(1,0)	(1,0)	(1,0)	(1,0)	(1,0)	(1,0)	(1,0)	(1,0)	(1,0)	(1,0)	(1,0)	(1,0)	(1,0)	
L1D -489>	(1,0)	(1,0)	(1,0)	(1,0)	(1,0)	(1,0)	(1,0)	(1,0)	(1,0)	(1,0)	(1,0)	(1,0)	(1,0)	(1,0)	(1,0)	(1,0)	
L1D -488>	(1,0)	(1,0)	(1,0)	(1,0)	(1,0)	(1,0)	(1,0)	(1,0)	(1,0)	(1,0)	(1,0)	(1,0)	(1,0)	(1,0)	(1,0)	(1,0)	
L1D -487>	(1,0)	(1,0)	(1,0)	(1,0)	(1,0)	(1,0)	(1,0)	(1,0)	(1,0)	(1,0)	(1,0)	(1,0)	(1,0)	(1,0)	(1,0)	(1,0)	
L1D -486>	(1,0)	(1,0)	(1,0)	(1,0)	(1,0)	(1,0)	(1,0)	(1,0)	(1,0)	(1,0)	(1,0)	(1,0)	(1,0)	(1,0)	(1,0)	(1,0)	
L1D -485>	(1,0)	(1,0)	(1,0)	(1,0)	(1,0)	(1,0)	(1,0)	(1,0)	(1,0)	(1,0)	(1,0)	(1,0)	(1,0)	(1,0)	(1,0)	(1,0)	
L1D -484>	(1,0)	(1,0)	(1,0)	(1,0)	(1,0)	(1,0)	(1,0)	(1,0)	(1,0)	(1,0)	(1,0)	(1,0)	(1,0)	(1,0)	(1,0)	(1,0)	
L1D -483>	(1,0)	(1,0)	(1,0)	(1,0)	(1,0)	(1,0)	(1,0)	(1,0)	(1,0)	(1,0)	(1,0)	(1,0)	(1,0)	(1,0)	(1,0)	(1,0)	
L1D -482>	(289,1)	(1,0)	(1,0)	(1,0)	(1,0)	(1,0)	(1,0)	(1,0)	(1,0)	(1,0)	(1,0)	(1,0)	(1,0)	(1,0)	(1,0)	(1,0)	
L1D -481>	(123,1)	(1,0)	(1,0)	(1,0)	(1,0)	(1,0)	(1,0)	(1,0)	(1,0)	(1,0)	(1,0)	(1,0)	(1,0)	(1,0)	(1,0)	(1,0)	
L1D -480>	(0,1)	(272,2)	(456,10)	(464,2)	(480,2)	(448,4)	(1,0)	(1,0)	(1,0)	(1,0)	(1,0)	(1,0)	(1,0)	(1,0)	(1,0)	(1,0)	
L1D -479>	(270,1)	(274,1)	(1,0)	(1,0)	(1,0)	(1,0)	(1,0)	(1,0)	(1,0)	(1,0)	(1,0)	(1,0)	(1,0)	(1,0)	(1,0)	(1,0)	
L1D -478>	(121,1)	(498,1)	(1,0)	(1,0)	(1,0)	(1,0)	(1,0)	(1,0)	(1,0)	(1,0)	(1,0)	(1,0)	(1,0)	(1,0)	(1,0)	(1,0)	
L1D -477>	(1,0)	(1,0)	(1,0)	(1,0)	(1,0)	(1,0)	(1,0)	(1,0)	(1,0)	(1,0)	(1,0)	(1,0)	(1,0)	(1,0)	(1,0)	(1,0)	
L1D -476>	(471,1)	(1,0)	(1,0)	(1,0)	(1,0)	(1,0)	(1,0)	(1,0)	(1,0)	(1,0)	(1,0)	(1,0)	(1,0)	(1,0)	(1,0)	(1,0)	
L1D -475>	(475,3)	(411,1)	(1,0)	(1,0)	(1,0)	(1,0)	(1,0)	(1,0)	(1,0)	(1,0)	(1,0)	(1,0)	(1,0)	(1,0)	(1,0)	(1,0)	
L1D -474>	(115,4)	(304,1)	(2,1)	(1,0)	(1,0)	(1,0)	(1,0)	(1,0)	(1,0)	(1,0)	(1,0)	(1,0)	(1,0)	(1,0)	(1,0)	(1,0)	
L1D -473>	(1,0)	(1,0)	(1,0)	(1,0)	(1,0)	(1,0)	(1,0)	(1,0)	(1,0)	(1,0)	(1,0)	(1,0)	(1,0)	(1,0)	(1,0)	(1,0)	
L1D -472>	(113,2)	(121,1)	(256,1)	(288,3)	(282,2)	(264,1)	(-8,1)	(63,1)	(1,0)	(1,0)	(1,0)	(1,0)	(1,0)	(1,0)	(1,0)	(1,0)	
L1D -471>	(343,7)	(1,2)	(1,0)	(1,0)	(1,0)	(1,0)	(1,0)	(1,0)	(1,0)	(1,0)	(1,0)	(1,0)	(1,0)	(1,0)	(1,0)	(1,0)	
L1D -470>	(281,1)	(0,1)	(96,1)	(1,0)	(1,0)	(1,0)	(1,0)	(1,0)	(1,0)	(1,0)	(1,0)	(1,0)	(1,0)	(1,0)	(1,0)	(1,0)	
L1D -469>	(26,1)	(243,1)	(275,10)	(291,1)	(278,1)	(1,0)	(1,0)	(1,0)	(1,0)	(1,0)	(1,0)	(1,0)	(1,0)	(1,0)	(1,0)	(1,0)	
L1D -468>	(0,1)	(1,0)	(1,0)	(1,0)	(1,0)	(1,0)	(1,0)	(1,0)	(1,0)	(1,0)	(1,0)	(1,0)	(1,0)	(1,0)	(1,0)	(1,0)	
L1D -467>	(1,5)	(1,0)	(1,0)	(1,0)	(1,0)	(1,0)	(1,0)	(1,0)	(1,0)	(1,0)	(1,0)	(1,0)	(1,0)	(1,0)	(1,0)	(1,0)	
L1D -466>	(330,31)	(254,4)	(1,0)	(1,0)	(1,0)	(1,0)	(1,0)	(1,0)	(1,0)	(1,0)	(1,0)	(1,0)	(1,0)	(1,0)	(1,0)	(1,0)	
L1D -465>	(122,1)	(0,1)	(114,1)	(326,1)	(1,0)	(1,0)	(1,0)	(1,0)	(1,0)	(1,0)	(1,0)	(1,0)	(1,0)	(1,0)	(1,0)	(1,0)	
L1D -464>	(0,3)	(113,4)	(284,10)	(448,2)	(1,0)	(1,0)	(1,0)	(1,0)	(1,0)	(1,0)	(1,0)	(1,0)	(1,0)	(1,0)	(1,0)	(1,0)	
L1D -463>	(293,1)	(1,0)	(1,0)	(1,0)	(1,0)	(1,0)	(1,0)	(1,0)	(1,0)	(1,0)	(1,0)	(1,0)	(1,0)	(1,0)	(1,0)	(1,0)	
L1D -462>	(249,2)	(1,0)	(1,0)	(1,0)	(1,0)	(1,0)	(1,0)	(1,0)	(1,0)	(1,0)	(1,0)	(1,0)	(1,0)	(1,0)	(1,0)	(1,0)	
L1D -461>	(1,0)	(1,0)	(1,0)	(1,0)	(1,0)	(1,0)	(1,0)	(1,0)	(1,0)	(1,0)	(1,0)	(1,0)	(1,0)	(1,0)	(1,0)	(1,0)	
L1D -460>	(0,1)	(-5,1)	(144,1)	(260,1)	(67,1)	(1,0)	(1,0)	(1,0)	(1,0)	(1,0)	(1,0)	(1,0)	(1,0)	(1,0)	(1,0)	(1,0)	
L1D -459>	(249,1)	(459,2)	(66,1)	(1,0)	(1,0)	(1,0)	(1,0)	(1,0)	(1,0)	(1,0)	(1,0)	(1,0)	(1,0)	(1,0)	(1,0)	(1,0)	
L1D -458>	(2,2)	(1,4)	(458,10)	(246,6)	(326,1)	(1,0)	(1,0)	(1,0)	(1,0)	(1,0)	(1,0)	(1,0)	(1,0)	(1,0)	(1,0)	(1,0)	
L1D -457>	(2,2)	(312,1)	(122,5)	(106,2)	(457,1)	(329,3)	(350,1)	(322,1)	(1,0)	(1,0)	(1,0)	(1,0)	(1,0)	(1,0)	(1,0)	(1,0)	
L1D -456>	(8,2)	(113,1)	(0,2)	(16,1)	(266,1)	(272,1)	(260,2)	(448,19)	(-8,1)	(1,0)	(1,0)	(1,0)	(1,0)	(1,0)	(1,0)	(1,0)	
L1D -455>	(104,5)	(1,0)	(1,0)	(1,0)	(1,0)	(1,0)	(1,0)	(1,0)	(1,0)	(1,0)	(1,0)	(1,0)	(1,0)	(1,0)	(1,0)	(1,0)	
L1D -454>	(251,1)	(247,14)	(295,1)	(235,2)	(267,1)	(276,1)	(279,1)	(297,1)	(277,1)	(293,2)	(274,1)	(275,1)	(292,6)	(25,1)	(1,0)	(1,0)	
L1D -453>	(249,1)	(251,1)	(272,8)	(453,3)	(0,1)	(1,0)	(1,0)	(1,0)	(1,0)	(1,0)	(1,0)	(1,0)	(1,0)	(1,0)	(1,0)	(1,0)	
L1D -452>	(293,1)	(0,1)	(270,1)	(420,1)	(1,0)	(1,0)	(1,0)	(1,0)	(1,0)	(1,0)	(1,0)	(1,0)	(1,0)	(1,0)	(1,0)	(1,0)	
L1D -451>	(249,1)	(2,1)	(0,1)	(122,1)	(1,0)	(1,0)	(1,0)	(1,0)	(1,0)	(1,0)	(1,0)	(1,0)	(1,0)	(1,0)	(1,0)	(1,0)	
L1D -450>	(2,1)	(115,10)	(277,1)	(314,3)	(293,1)	(270,1)	(1,0)	(1,0)	(1,0)	(1,0)	(1,0)	(1,0)	(1,0)	(1,0)	(1,0)	(1,0)	
L1D -449>	(0,7)	(114,7)	(312,2)	(-9,1)	(2,18)	(1,3)	(1,0)	(1,0)	(1,0)	(1,0)	(1,0)	(1,0)	(1,0)	(1,0)	(1,0)	(1,0)	
L1D -448>	(113,8)	(122,4)	(0,1)	(3,1)	(121,7)	(384,20)	(416,14)	(112,17)	(432,6)	(448,64)	(480,26)	(464,2)	(119,1)	(424,2)	(456,2)	(-8,1)	
L1D -447>	(319,2)	(-2,3)	(447,5)	(8,2)	(0,13)	(121,2)	(119,1)	(384,3)	(275,1)	(7,1)	(112,1)	(105,1)	(1,0)	(1,0)	(1,0)	(1,0)	
L1D -446>	(446,2)	(319,2)	(318,1)	(0,1)	(459,1)	(275,1)	(1,0)	(1,0)	(1,0)	(1,0)	(1,0)	(1,0)	(1,0)	(1,0)	(1,0)	(1,0)	
L1D -445>	(319,1)	(445,2)	(267,3)	(264,12)	(1,0)	(1,0)	(1,0)	(1,0)	(1,0)	(1,0)	(1,0)	(1,0)	(1,0)	(1,0)	(1,0)	(1,0)	
L1D -444>	(144,1)	(29,1)	(67,2)	(260,6)	(252,1)	(-8,1)	(1,0)	(1,0)	(1,0)	(1,0)	(1,0)	(1,0)	(1,0)	(1,0)	(1,0)	(1,0)	
L1D -443>	(265,1)	(66,1)	(443,1)	(1,0)	(1,0)	(1,0)	(1,0)	(1,0)	(1,0)	(1,0)	(1,0)	(1,0)	(1,0)	(1,0)	(1,0)	(1,0)	
L1D -442>	(1,2)	(1,0)	(1,0)	(1,0)	(1,0)	(1,0)	(1,0)	(1,0)	(1,0)	(1,0)	(1,0)	(1,0)	(1,0)	(1,0)	(1,0)	(1,0)	
L1D -441>	(115,4)	(114,3)	(106,2)	(312,1)	(-8,1)	(320,1)	(273,3)	(-6,2)	(1,0)	(1,0)	(1,0)	(1,0)	(1,0)	(1,0)	(1,0)	(1,0)	
L1D -440>	(-8,20)	(114,2)	(312,2)	(113,4)	(440,6)	(256,1)	(459,1)	(0,1)	(63,1)	(1,0)	(1,0)	(1,0)	(1,0)	(1,0)	(1,0)	(1,0)	
L1D -439>	(113,7)	(0,2)	(-9,21)	(232,10)	(-7,1)	(311,1)	(459,2)	(324,1)	(336,1)	(328,1)	(306,1)	(307,1)	(308,2)	(310,2)	(326,1)	(331,1)	
L1D -438>	(438,77)	(459,5)	(311,4)	(434,7)	(310,1)	(276,1)	(466,0)	(295,1)	(261,0)	(0,0)	(330,0)	(336,0)	(358,0)	(367,0)	(306,0)	(340,0)	
L1D -437>	(1,3)	(438,59)	(212,3)	(311,17)	(458,6)	(295,1)	(275,1)	(1,0)	(1,0)	(1,0)	(1,0)	(1,0)	(1,0)	(1,0)	(1,0)	(1,0)	
L1D -436>	(1,7)	(434,5)	(438,21)	(295,3)	(1,0)	(1,0)	(1,0)	(1,0)	(1,0)	(1,0)	(1,0)	(1,0)	(1,0)	(1,0)	(1,0)	(1,0)	
L1D -435>	(0,2)	(435,84)	(114,1)	(294,8)	(210,6)	(431,4)	(434,1)	(261,1)	(438,1)	(93,3)	(107,1)	(92,1)	(264,2)	(105,1)	(250,1)	(260,0)	
L1D -434>	(1,56)	(0,11)	(435,23)	(438,70)	(295,13)	(212,8)	(434,26)	(431,1)	(210,2)	(1,0)	(1,0)	(1,0)	(1,0)	(1,0)	(1,0)	(1,0)	
L1D -433>	(-6,1)	(0,19)	(1,6)	(435,80)	(438,2)	(294,3)	(431,1)	(210,2)	(432,1)	(1,0)	(1,0)	(1,0)	(1,0)	(1,0)	(1,0)	(1,0)	
L1D -432>	(1,1)	(0,3)	(236,2)	(238,3)	(432,1)	(1,0)	(1,0)	(1,0)	(1,0)	(1,0)	(1,0)	(1,0)	(1,0)	(1,0)	(1,0)	(1,0)	
L1D -431>	(1,64)	(104,0)	(-2,0)	(0,1)	(431,6)	(2,0)	(294,3)	(210,1)	(435,3)	(92,0)	(1,0)	(1,0)	(1,0)	(1,0)	(1,0)	(1,0)	
L1D -430>	(1,52)	(0,4)	(206,2)	(228,1)	(431,1)	(217,1)	(261,4)	(121,1)	(426,1)	(105,1)	(1,0)	(1,0)	(1,0)	(1,0)	(1,0)	(1,0)	
L1D -429>	(0,22)	(1,62)	(450,2)	(303,1)	(267,1)	(8,2)	(248,1)	(1,0)	(1,0)	(1,0)	(1,0)	(1,0)	(1,0)	(1,0)	(1,0)	(1,0)	
L1D -428>	(1,10)	(8,1)	(79,1)	(0,1)	(1,0)	(1,0)	(1,0)	(1,0)	(1,0)	(1,0)	(1,0)	(1,0)	(1,0)	(1,0)	(1,0)	(1,0)	
L1D -427>	(1,75)	(0,5)	(427,116)	(423,4)	(290,9)	(203,7)	(89,4)	(-17,1)	(1,0)	(1,0)	(1,0)	(1,0)	(1,0)	(1,0)	(1,0)	(1,0)	
L1D -426>	(427,20)	(228,1)	(426,2)	(290,3)	(423,2)	(203,1)	(270,1)	(1,0)	(1,0)	(1,0)	(1,0)	(1,0)	(1,0)	(1,0)	(1,0)	(1,0)	
L1D -425>	(0,8)	(1,6)	(427,76)	(290,7)	(203,1)	(2,3)	(1,0)	(1,0)	(1,0)	(1,0)	(1,0)	(1,0)	(1,0)	(1,0)	(1,0)	(1,0)	
L1D -424>	(1,2)	(427,5)	(290,1)	(228,6)	(260,1)	(8,3)	(423,1)	(1,0)	(1,0)	(1,0)	(1,0)	(1,0)	(1,0)	(1,0)	(1,0)	(1,0)	
L1D -423>	(1,125)	(0,2)	(267,0)	(423,8)	(290,2)	(427,10)	(94,0)	(203,0)	(428,0)	(-4,0)	(1,0)	(1,0)	(1,0)	(1,0)	(1,0)	(1,0)	
L1D -422>	(1,105)	(0,13)	(27,1)	(215,1)	(1,0)	(1,0)	(1,0)	(1,0)	(1,0)	(1,0)	(1,0)	(1,0)	(1,0)	(1,0)	(1,0)	(1,0)	
L1D -421>	(1,81)	(0,11)	(-8,0)	(335,0)	(267,0)	(1,0)	(1,0)	(1,0)	(1,0)	(1,0)	(1,0)	(1,0)	(1,0)	(1,0)	(1,0)	(1,0)	
L1D -420>	(1,18)	(296,1)	(72,2)	(-8,1)	(1,0)	(1,0)	(1,0)	(1,0)	(1,0)	(1,0)	(1,0)	(1,0)	(1,0)	(1,0)	(1,0)	(1,0)	
L1D -419>	(0,3)	(1,100)	(419,98)	(286,16)	(196,2)	(415,5)	(1,0)	(1,0)	(1,0)	(1,0)	(1,0)	(1,0)	(1,0)	(1,0)	(1,0)	(1,0)	
L1D -418>	(18,1)	(0,1)	(419,14)	(95,1)	(415,2)	(1,2)	(1,0)	(1,0)	(1,0)	(1,0)	(1,0)	(1,0)	(1,0)	(1,0)	(1,0)	(1,0)	
L1D -417>	(41,1)	(123,1)	(228,1)	(122,2)	(419,76)	(286,11)	(196,2)	(8,1)	(1,1)	(113,3)	(1,0)	(1,0)	(1,0)	(1,0)	(1,0)	(1,0)	
L1D -416>	(1,6)	(202,2)	(400,2)	(260,6)	(209,9)	(416,18)	(392,2)	(204,3)	(252,4)	(188,1)	(5,3)	(415,8)	(2,1)	(0,1)	(384,3)	(414,1)	
L1D -415>	(1,117)	(196,1)	(415,10)	(419,4)	(286,3)	(0,1)	(2,1)	(115,0)	(1,0)	(1,0)	(1,0)	(1,0)	(1,0)	(1,0)	(1,0)	(1,0)	
L1D -414>	(0,8)	(1,57)	(311,1)	(105,2)	(479,2)	(8,2)	(121,1)	(416,1)	(1,0)	(1,0)	(1,0)	(1,0)	(1,0)	(1,0)	(1,0)	(1,0)	
L1D -413>	(1,102)	(0,14)	(64,1)	(1,0)	(1,0)	(1,0)	(1,0)	(1,0)	(1,0)	(1,0)	(1,0)	(1,0)	(1,0)	(1,0)	(1,0)	(1,0)	
L1D -412>	(1,19)	(0,3)	(270,4)	(229,2)	(1,0)	(1,0)	(1,0)	(1,0)	(1,0)	(1,0)	(1,0)	(1,0)	(1,0)	(1,0)	(1,0)	(1,0)	
L1D -411>	(1,74)	(0,5)	(411,68)	(407,1)	(229,0)	(220,0)	(189,1)	(282,6)	(1,0)	(1,0)	(1,0)	(1,0)	(1,0)	(1,0)	(1,0)	(1,0)	
L1D -410>	(1,3)	(411,8)	(1,0)	(1,0)	(1,0)	(1,0)	(1,0)	(1,0)	(1,0)	(1,0)	(1,0)	(1,0)	(1,0)	(1,0)	(1,0)	(1,0)	
L1D -409>	(261,1)	(411,39)	(0,4)	(214,5)	(-64,28)	(409,2)	(282,4)	(-6,1)	(197,1)	(213,2)	(1,0)	(1,0)	(1,0)	(1,0)	(1,0)	(1,0)	
L1D -408>	(407,4)	(206,8)	(404,12)	(205,5)	(104,3)	(200,1)	(218,1)	(224,1)	(252,1)	(3,1)	(-9,1)	(-2,1)	(1,2)	(113,1)	(411,2)	(440,1)	
L1D -407>	(1,110)	(407,22)	(197,0)	(279,0)	(94,0)	(0,1)	(27,0)	(349,0)	(499,0)	(28,0)	(412,0)	(91,0)	(4,0)	(282,3)	(411,8)	(263,0)	
L1D -406>	(1,22)	(79,1)	(278,1)	(219,1)	(26,1)	(426,1)	(311,2)	(0,1)	(-8,1)	(1,0)	(1,0)	(1,0)	(1,0)	(1,0)	(1,0)	(1,0)	
L1D -405>	(1,47)	(-7,2)	(311,15)	(255,3)	(191,2)	(261,2)	(300,1)	(275,1)	(316,1)	(325,1)	(334,1)	(297,1)	(296,1)	(273,1)	(305,1)	(304,1)	
L1D -404>	(1,10)	(-64,1)	(16,2)	(-7,1)	(9,1)	(0,1)	(313,1)	(1,0)	(1,0)	(1,0)	(1,0)	(1,0)	(1,0)	(1,0)	(1,0)	(1,0)	
L1D -403>	(93,29)	(97,34)	(1,67)	(92,34)	(104,57)	(250,52)	(266,9)	(403,90)	(102,1)	(113,29)	(90,27)	(117,21)	(114,22)	(105,35)	(121,14)	(95,7)	
L1D -402>	(114,1)	(261,6)	(93,12)	(104,23)	(264,10)	(105,16)	(113,13)	(90,6)	(117,5)	(112,4)	(95,6)	(97,16)	(265,7)	(92,5)	(121,14)	(250,5)	
L1D -401>	(318,2)	(396,1)	(260,2)	(398,2)	(0,1)	(-26,1)	(122,1)	(11,1)	(121,1)	(403,16)	(1,2)	(197,1)	(8,3)	(313,1)	(404,1)	(92,1)	
L1D -400>	(1,1)	(0,4)	(400,4)	(464,1)	(121,3)	(112,5)	(122,27)	(-64,2)	(384,7)	(105,2)	(363,2)	(399,1)	(278,1)	(1,0)	(1,0)	(1,0)	
L1D -399>	(1,104)	(399,14)	(250,1)	(278,1)	(208,1)	(120,0)	(207,0)	(90,2)	(403,4)	(0,1)	(3,0)	(92,0)	(111,0)	(104,0)	(392,1)	(265,1)	
L1D -398>	(93,14)	(97,22)	(121,24)	(113,11)	(264,5)	(92,15)	(404,1)	(250,16)	(96,2)	(1,11)	(104,35)	(261,3)	(2,6)	(265,7)	(102,2)	(197,4)	
L1D -397>	(93,10)	(191,1)	(183,1)	(-64,1)	(-8,2)	(1,28)	(10,1)	(91,1)	(384,7)	(8,2)	(0,1)	(1,0)	(1,0)	(1,0)	(1,0)	(1,0)	
L1D -396>	(-26,2)	(1,3)	(3,1)	(0,2)	(270,1)	(246,1)	(-9,1)	(112,1)	(250,1)	(197,1)	(1,0)	(1,0)	(1,0)	(1,0)	(1,0)	(1,0)	
L1D -395>	(-1,2)	(264,1)	(101,1)	(0,2)	(-26,2)	(1,20)	(270,2)	(104,3)	(-64,1)	(25,2)	(265,1)	(250,1)	(395,43)	(391,2)	(403,1)	(175,2)	
L1D -394>	(1,1)	(3,3)	(200,3)	(-35,1)	(403,1)	(401,1)	(202,1)	(395,1)	(396,2)	(186,1)	(1,0)	(1,0)	(1,0)	(1,0)	(1,0)	(1,0)	
L1D -393>	(-64,9)	(393,11)	(-3,1)	(255,1)	(8,4)	(0,2)	(205,7)	(404,38)	(128,1)	(206,5)	(197,5)	(395,9)	(-68,1)	(210,1)	(204,1)	(391,1)	
L1D -392>	(183,1)	(392,3)	(-1,1)	(404,4)	(-8,3)	(206,5)	(67,1)	(205,2)	(238,1)	(395,1)	(440,8)	(121,1)	(391,1)	(1,0)	(1,0)	(1,0)	
L1D -391>	(361,3)	(255,3)	(333,2)	(476,2)	(395,5)	(391,12)	(78,10)	(1,68)	(332,2)	(175,1)	(-64,10)	(11,5)	(393,1)	(0,1)	(4,1)	(197,2)	
L1D -390>	(0,1)	(183,2)	(255,1)	(1,9)	(1,0)	(1,0)	(1,0)	(1,0)	(1,0)	(1,0)	(1,0)	(1,0)	(1,0)	(1,0)	(1,0)	(1,0)	
L1D -389>	(-64,16)	(1,17)	(0,1)	(211,1)	(78,1)	(205,6)	(470,1)	(385,3)	(2,6)	(261,4)	(183,1)	(197,2)	(313,1)	(190,1)	(300,1)	(404,1)	
L1D -388>	(388,1)	(-8,2)	(-16,3)	(462,1)	(8,4)	(-72,1)	(56,1)	(384,1)	(448,1)	(1,1)	(1,0)	(1,0)	(1,0)	(1,0)	(1,0)	(1,0)	
L1D -387>	(196,1)	(2,1)	(387,17)	(192,1)	(8,1)	(383,2)	(1,22)	(0,1)	(1,0)	(1,0)	(1,0)	(1,0)	(1,0)	(1,0)	(1,0)	(1,0)	
L1D -386>	(1,1)	(2,3)	(-64,9)	(208,1)	(8,1)	(209,1)	(121,1)	(387,1)	(0,1)	(296,1)	(1,0)	(1,0)	(1,0)	(1,0)	(1,0)	(1,0)	
L1D -385>	(-64,6)	(0,3)	(113,1)	(239,1)	(2,2)	(385,2)	(51,1)	(8,29)	(122,12)	(-67,1)	(387,5)	(336,1)	(313,2)	(404,1)	(197,3)	(360,1)	
L1D -384>	(121,8)	(0,7)	(8,2)	(-64,3)	(384,90)	(400,10)	(319,1)	(392,6)	(257,1)	(113,1)	(111,1)	(416,26)	(-72,4)	(112,3)	(448,2)	(440,3)	
L1D -383>	(260,1)	(383,13)	(120,2)	(0,2)	(-64,7)	(268,1)	(121,1)	(188,1)	(288,2)	(5,2)	(394,1)	(128,1)	(401,1)	(387,2)	(1,20)	(1,0)	
L1D -382>	(377,2)	(387,1)	(271,1)	(120,1)	(219,3)	(197,2)	(419,6)	(183,1)	(1,2)	(1,0)	(1,0)	(1,0)	(1,0)	(1,0)	(1,0)	(1,0)	
L1D -381>	(-64,6)	(197,2)	(200,5)	(1,0)	(1,0)	(1,0)	(1,0)	(1,0)	(1,0)	(1,0)	(1,0)	(1,0)	(1,0)	(1,0)	(1,0)	(1,0)	
L1D -380>	(376,1)	(-64,2)	(144,1)	(364,1)	(207,1)	(-16,4)	(380,2)	(55,30)	(252,2)	(296,2)	(-72,2)	(238,2)	(430,1)	(0,1)	(348,1)	(1,1)	
L1D -379>	(1,3)	(286,1)	(-80,1)	(8,1)	(161,1)	(267,2)	(197,2)	(122,1)	(379,1)	(270,2)	(0,1)	(363,3)	(1,0)	(1,0)	(1,0)	(1,0)	
L1D -378>	(-48,4)	(3,6)	(115,3)	(293,2)	(380,16)	(186,1)	(241,1)	(16,2)	(182,6)	(-64,3)	(-32,4)	(0,3)	(378,11)	(63,1)	(200,11)	(160,1)	
L1D -377>	(0,9)	(-64,19)	(114,4)	(313,2)	(-72,1)	(2,2)	(377,39)	(261,1)	(60,1)	(344,1)	(1,1)	(197,29)	(282,1)	(286,1)	(126,2)	(5,8)	
L1D -376>	(-64,2)	(-12,2)	(113,5)	(0,8)	(51,13)	(8,11)	(16,5)	(368,2)	(345,4)	(337,3)	(376,1)	(440,9)	(55,6)	(245,2)	(332,1)	(242,1)	
L1D -375>	(347,4)	(296,3)	(-128,6)	(183,4)	(374,1)	(375,12)	(60,3)	(-3,2)	(-9,1)	(372,1)	(0,1)	(-64,1)	(266,1)	(206,1)	(-55,3)	(197,7)	
L1D -374>	(256,1)	(246,1)	(16,1)	(271,2)	(407,1)	(411,3)	(96,1)	(1,0)	(1,0)	(1,0)	(1,0)	(1,0)	(1,0)	(1,0)	(1,0)	(1,0)	
L1D -373>	(-64,32)	(0,5)	(64,1)	(243,2)	(271,14)	(394,1)	(259,1)	(252,1)	(244,1)	(284,1)	(250,1)	(302,1)	(264,1)	(275,1)	(265,1)	(241,1)	
L1D -372>	(0,7)	(372,2)	(-72,15)	(55,1)	(8,3)	(177,1)	(468,1)	(16,1)	(356,2)	(1,0)	(1,0)	(1,0)	(1,0)	(1,0)	(1,0)	(1,0)	
L1D -371>	(176,1)	(174,1)	(16,4)	(8,1)	(364,1)	(-64,1)	(-8,2)	(1,0)	(1,0)	(1,0)	(1,0)	(1,0)	(1,0)	(1,0)	(1,0)	(1,0)	
L1D -370>	(0,1)	(16,8)	(8,2)	(207,1)	(1,1)	(1,0)	(1,0)	(1,0)	(1,0)	(1,0)	(1,0)	(1,0)	(1,0)	(1,0)	(1,0)	(1,0)	
L1D -369>	(-64,6)	(277,1)	(-8,3)	(8,4)	(16,1)	(157,2)	(367,1)	(1,0)	(1,0)	(1,0)	(1,0)	(1,0)	(1,0)	(1,0)	(1,0)	(1,0)	
L1D -368>	(-8,23)	(368,29)	(361,16)	(438,24)	(252,1)	(437,1)	(440,1)	(439,6)	(-64,5)	(55,18)	(432,1)	(245,1)	(323,1)	(349,1)	(246,1)	(259,1)	
L1D -367>	(437,1)	(104,1)	(0,2)	(-64,23)	(368,3)	(-8,2)	(283,1)	(1,0)	(1,0)	(1,0)	(1,0)	(1,0)	(1,0)	(1,0)	(1,0)	(1,0)	
L1D -366>	(241,1)	(1,0)	(1,0)	(1,0)	(1,0)	(1,0)	(1,0)	(1,0)	(1,0)	(1,0)	(1,0)	(1,0)	(1,0)	(1,0)	(1,0)	(1,0)	
L1D -365>	(-64,48)	(252,2)	(272,1)	(292,1)	(256,1)	(1,0)	(1,0)	(1,0)	(1,0)	(1,0)	(1,0)	(1,0)	(1,0)	(1,0)	(1,0)	(1,0)	
L1D -364>	(-64,28)	(0,2)	(320,1)	(-8,2)	(236,1)	(365,1)	(1,0)	(1,0)	(1,0)	(1,0)	(1,0)	(1,0)	(1,0)	(1,0)	(1,0)	(1,0)	
L1D -363>	(-1,8)	(-64,1)	(-8,2)	(95,1)	(1,0)	(1,0)	(1,0)	(1,0)	(1,0)	(1,0)	(1,0)	(1,0)	(1,0)	(1,0)	(1,0)	(1,0)	
L1D -362>	(-8,7)	(-64,8)	(0,1)	(1,0)	(1,0)	(1,0)	(1,0)	(1,0)	(1,0)	(1,0)	(1,0)	(1,0)	(1,0)	(1,0)	(1,0)	(1,0)	
L1D -361>	(-64,21)	(172,2)	(116,1)	(-8,9)	(361,5)	(-2,1)	(464,1)	(337,5)	(1,1)	(1,0)	(1,0)	(1,0)	(1,0)	(1,0)	(1,0)	(1,0)	
L1D -360>	(352,1)	(167,1)	(-8,4)	(-128,13)	(-64,9)	(360,2)	(361,2)	(72,1)	(1,0)	(1,0)	(1,0)	(1,0)	(1,0)	(1,0)	(1,0)	(1,0)	
L1D -359>	(1,111)	(331,5)	(73,1)	(76,4)	(93,3)	(275,1)	(267,1)	(-2,1)	(-128,2)	(-64,1)	(359,2)	(-16,1)	(0,1)	(1,0)	(1,0)	(1,0)	
L1D -358>	(-3,1)	(-8,1)	(275,1)	(243,1)	(240,1)	(128,5)	(0,1)	(264,1)	(1,0)	(1,0)	(1,0)	(1,0)	(1,0)	(1,0)	(1,0)	(1,0)	
L1D -357>	(-128,4)	(-16,1)	(0,1)	(267,1)	(64,1)	(1,0)	(1,0)	(1,0)	(1,0)	(1,0)	(1,0)	(1,0)	(1,0)	(1,0)	(1,0)	(1,0)	
L1D -356>	(0,3)	(64,1)	(356,2)	(1,0)	(1,0)	(1,0)	(1,0)	(1,0)	(1,0)	(1,0)	(1,0)	(1,0)	(1,0)	(1,0)	(1,0)	(1,0)	
L1D -355>	(3,3)	(438,2)	(8,2)	(341,4)	(1,0)	(1,0)	(1,0)	(1,0)	(1,0)	(1,0)	(1,0)	(1,0)	(1,0)	(1,0)	(1,0)	(1,0)	
L1D -354>	(-64,5)	(128,2)	(13,1)	(0,2)	(1,0)	(1,0)	(1,0)	(1,0)	(1,0)	(1,0)	(1,0)	(1,0)	(1,0)	(1,0)	(1,0)	(1,0)	
L1D -353>	(-64,1)	(243,1)	(16,1)	(144,1)	(1,0)	(1,0)	(1,0)	(1,0)	(1,0)	(1,0)	(1,0)	(1,0)	(1,0)	(1,0)	(1,0)	(1,0)	
L1D -352>	(352,3)	(360,1)	(1,1)	(0,1)	(344,2)	(-64,3)	(-128,3)	(8,2)	(471,2)	(122,1)	(253,1)	(361,1)	(439,1)	(1,0)	(1,0)	(1,0)	
L1D -351>	(-128,1)	(121,1)	(122,1)	(-64,1)	(1,0)	(1,0)	(1,0)	(1,0)	(1,0)	(1,0)	(1,0)	(1,0)	(1,0)	(1,0)	(1,0)	(1,0)	
L1D -350>	(128,1)	(471,1)	(120,1)	(240,1)	(1,0)	(1,0)	(1,0)	(1,0)	(1,0)	(1,0)	(1,0)	(1,0)	(1,0)	(1,0)	(1,0)	(1,0)	
L1D -349>	(-128,4)	(66,1)	(321,1)	(9,1)	(244,1)	(1,0)	(1,0)	(1,0)	(1,0)	(1,0)	(1,0)	(1,0)	(1,0)	(1,0)	(1,0)	(1,0)	
L1D -348>	(-32,1)	(122,1)	(1,0)	(1,0)	(1,0)	(1,0)	(1,0)	(1,0)	(1,0)	(1,0)	(1,0)	(1,0)	(1,0)	(1,0)	(1,0)	(1,0)	
L1D -347>	(347,2)	(262,1)	(252,1)	(8,2)	(-64,1)	(-8,1)	(1,0)	(1,0)	(1,0)	(1,0)	(1,0)	(1,0)	(1,0)	(1,0)	(1,0)	(1,0)	
L1D -346>	(8,2)	(466,6)	(-64,1)	(1,0)	(1,0)	(1,0)	(1,0)	(1,0)	(1,0)	(1,0)	(1,0)	(1,0)	(1,0)	(1,0)	(1,0)	(1,0)	
L1D -345>	(-64,3)	(275,2)	(-16,4)	(243,10)	(297,2)	(-3,2)	(324,1)	(423,1)	(158,7)	(126,1)	(333,1)	(332,4)	(0,2)	(165,1)	(-128,1)	(350,2)	
L1D -344>	(0,4)	(-8,5)	(-64,2)	(-128,2)	(-16,1)	(363,1)	(344,1)	(-7,5)	(98,1)	(1,0)	(1,0)	(1,0)	(1,0)	(1,0)	(1,0)	(1,0)	
L1D -343>	(275,22)	(8,3)	(274,1)	(277,1)	(361,1)	(-128,9)	(158,2)	(332,1)	(3,1)	(363,2)	(97,2)	(223,3)	(1,0)	(1,0)	(1,0)	(1,0)	
L1D -342>	(275,1)	(224,1)	(363,1)	(96,16)	(-128,1)	(1,0)	(1,0)	(1,0)	(1,0)	(1,0)	(1,0)	(1,0)	(1,0)	(1,0)	(1,0)	(1,0)	
L1D -341>	(0,1)	(225,1)	(-64,1)	(1,0)	(1,0)	(1,0)	(1,0)	(1,0)	(1,0)	(1,0)	(1,0)	(1,0)	(1,0)	(1,0)	(1,0)	(1,0)	
L1D -340>	(-128,2)	(0,2)	(-16,3)	(-64,3)	(454,2)	(453,1)	(105,1)	(1,0)	(1,0)	(1,0)	(1,0)	(1,0)	(1,0)	(1,0)	(1,0)	(1,0)	
L1D -339>	(-64,10)	(-16,5)	(0,1)	(458,2)	(342,4)	(258,2)	(1,0)	(1,0)	(1,0)	(1,0)	(1,0)	(1,0)	(1,0)	(1,0)	(1,0)	(1,0)	
L1D -338>	(275,7)	(24,4)	(-128,2)	(251,1)	(247,1)	(338,4)	(424,1)	(466,1)	(1,0)	(1,0)	(1,0)	(1,0)	(1,0)	(1,0)	(1,0)	(1,0)	
L1D -337>	(243,5)	(274,2)	(275,25)	(361,16)	(283,1)	(150,1)	(242,2)	(337,4)	(316,4)	(424,1)	(1,0)	(1,0)	(1,0)	(1,0)	(1,0)	(1,0)	
L1D -336>	(275,2)	(-128,14)	(332,2)	(471,1)	(158,1)	(122,1)	(-64,4)	(352,1)	(148,1)	(52,1)	(1,0)	(1,0)	(1,0)	(1,0)	(1,0)	(1,0)	
L1D -335>	(-64,21)	(112,3)	(344,1)	(-128,3)	(1,0)	(1,0)	(1,0)	(1,0)	(1,0)	(1,0)	(1,0)	(1,0)	(1,0)	(1,0)	(1,0)	(1,0)	
L1D -334>	(270,1)	(339,1)	(283,2)	(286,1)	(331,1)	(362,1)	(-11,6)	(-64,6)	(115,1)	(337,1)	(-51,1)	(1,0)	(1,0)	(1,0)	(1,0)	(1,0)	
L1D -333>	(66,1)	(0,1)	(333,1)	(1,0)	(1,0)	(1,0)	(1,0)	(1,0)	(1,0)	(1,0)	(1,0)	(1,0)	(1,0)	(1,0)	(1,0)	(1,0)	
L1D -332>	(-128,10)	(122,1)	(332,3)	(-17,1)	(1,0)	(1,0)	(1,0)	(1,0)	(1,0)	(1,0)	(1,0)	(1,0)	(1,0)	(1,0)	(1,0)	(1,0)	
L1D -331>	(322,8)	(-128,14)	(0,4)	(2,1)	(-64,8)	(320,1)	(494,1)	(339,1)	(323,1)	(-62,1)	(1,0)	(1,0)	(1,0)	(1,0)	(1,0)	(1,0)	
L1D -330>	(329,1)	(276,2)	(421,1)	(0,9)	(283,1)	(267,5)	(-64,3)	(238,1)	(450,1)	(268,1)	(330,1)	(1,0)	(1,0)	(1,0)	(1,0)	(1,0)	
L1D -329>	(329,7)	(243,1)	(0,3)	(139,1)	(162,4)	(332,1)	(142,1)	(-128,4)	(1,0)	(1,0)	(1,0)	(1,0)	(1,0)	(1,0)	(1,0)	(1,0)	
L1D -328>	(7,2)	(-64,7)	(122,2)	(-128,10)	(10,1)	(324,1)	(150,2)	(282,1)	(312,1)	(328,1)	(-6,4)	(1,0)	(1,0)	(1,0)	(1,0)	(1,0)	
L1D -327>	(-8,1)	(8,1)	(-128,8)	(-64,2)	(78,1)	(5,49)	(384,1)	(1,0)	(1,0)	(1,0)	(1,0)	(1,0)	(1,0)	(1,0)	(1,0)	(1,0)	
L1D -326>	(2,7)	(-128,12)	(123,1)	(8,1)	(334,6)	(-64,3)	(459,1)	(-52,8)	(-4,1)	(-51,2)	(-3,1)	(80,4)	(1,0)	(1,0)	(1,0)	(1,0)	
L1D -325>	(-11,81)	(-55,0)	(-46,0)	(122,0)	(454,0)	(5,0)	(-51,5)	(-6,0)	(115,0)	(325,0)	(255,0)	(2,0)	(197,0)	(377,0)	(190,0)	(1,0)	
L1D -324>	(-128,3)	(277,1)	(122,12)	(261,1)	(2,1)	(275,2)	(72,1)	(64,2)	(-64,1)	(465,2)	(71,1)	(1,0)	(1,0)	(1,0)	(1,0)	(1,0)	
L1D -323>	(314,2)	(323,1)	(0,2)	(416,1)	(120,2)	(1,24)	(1,0)	(1,0)	(1,0)	(1,0)	(1,0)	(1,0)	(1,0)	(1,0)	(1,0)	(1,0)	
L1D -322>	(67,3)	(131,2)	(-60,1)	(123,3)	(-63,2)	(315,6)	(322,3)	(0,42)	(267,4)	(96,2)	(128,15)	(332,1)	(158,1)	(6,1)	(409,4)	(-64,1)	
L1D -321>	(8,2)	(2,2)	(90,1)	(321,6)	(66,2)	(349,1)	(158,1)	(154,1)	(-1,3)	(-64,21)	(499,1)	(345,1)	(1,0)	(1,0)	(1,0)	(1,0)	
L1D -320>	(7,5)	(320,4)	(448,2)	(10,2)	(9,1)	(122,4)	(107,1)	(114,3)	(18,1)	(-1,2)	(120,1)	(-15,14)	(434,1)	(2,4)	(-64,6)	(-72,3)	
L1D -319>	(9,20)	(40,1)	(18,1)	(447,1)	(446,2)	(400,1)	(121,1)	(104,1)	(8,3)	(448,2)	(1,0)	(1,0)	(1,0)	(1,0)	(1,0)	(1,0)	
L1D -318>	(5,2)	(40,4)	(-64,9)	(0,6)	(64,2)	(326,1)	(24,5)	(317,3)	(-14,2)	(199,1)	(158,1)	(14,1)	(120,1)	(197,1)	(-7,2)	(9,17)	
L1D -317>	(9,2)	(-9,1)	(226,1)	(318,1)	(317,8)	(155,1)	(7,1)	(-15,4)	(2,10)	(32,2)	(133,1)	(330,1)	(-64,2)	(4,1)	(-51,1)	(12,1)	
L1D -316>	(-6,4)	(320,2)	(284,1)	(-80,1)	(122,24)	(115,5)	(316,6)	(479,1)	(3,2)	(192,2)	(-7,3)	(114,2)	(105,1)	(-11,10)	(248,1)	(238,1)	
L1D -315>	(106,1)	(-64,4)	(0,2)	(320,1)	(121,3)	(113,1)	(434,1)	(128,1)	(315,2)	(1,0)	(1,0)	(1,0)	(1,0)	(1,0)	(1,0)	(1,0)	
L1D -314>	(-5,2)	(-64,31)	(0,2)	(4,2)	(128,4)	(120,2)	(314,4)	(316,1)	(-4,1)	(1,0)	(1,0)	(1,0)	(1,0)	(1,0)	(1,0)	(1,0)	
L1D -313>	(-5,11)	(313,11)	(-3,3)	(-6,1)	(8,1)	(0,3)	(5,1)	(457,1)	(197,10)	(-64,3)	(398,1)	(-4,10)	(-128,3)	(377,1)	(1,0)	(1,0)	
L1D -312>	(312,28)	(320,3)	(440,2)	(6,2)	(-64,30)	(0,2)	(-7,12)	(-8,1)	(-128,3)	(106,1)	(243,3)	(259,1)	(1,0)	(1,0)	(1,0)	(1,0)	
L1D -311>	(-8,1)	(32,6)	(-64,29)	(0,2)	(3,26)	(255,3)	(60,2)	(311,1)	(16,3)	(330,6)	(113,3)	(8,1)	(197,1)	(-128,8)	(1,0)	(1,0)	
L1D -310>	(91,4)	(-9,5)	(90,2)	(83,2)	(318,2)	(82,2)	(3,4)	(12,3)	(199,2)	(168,6)	(-103,1)	(-30,1)	(182,1)	(-64,2)	(192,1)	(200,1)	
L1D -309>	(457,23)	(-64,52)	(12,2)	(133,2)	(308,4)	(-8,2)	(199,16)	(330,4)	(197,2)	(2,1)	(180,1)	(179,1)	(220,1)	(186,1)	(208,2)	(201,1)	
L1D -308>	(81,2)	(428,1)	(5,6)	(372,1)	(300,1)	(-8,1)	(-7,1)	(309,1)	(101,4)	(80,3)	(165,5)	(95,2)	(106,5)	(-128,4)	(111,1)	(83,1)	
L1D -307>	(3,2)	(16,2)	(440,3)	(307,2)	(-64,2)	(-2,2)	(-128,1)	(18,2)	(495,1)	(1,0)	(1,0)	(1,0)	(1,0)	(1,0)	(1,0)	(1,0)	
L1D -306>	(24,19)	(-3,1)	(163,1)	(-64,2)	(-8,1)	(0,6)	(3,3)	(-128,4)	(342,1)	(93,2)	(148,1)	(299,1)	(306,1)	(99,1)	(1,0)	(1,0)	
L1D -305>	(457,10)	(0,3)	(4,5)	(6,3)	(-64,31)	(-11,4)	(264,3)	(275,2)	(409,1)	(305,1)	(272,2)	(24,22)	(304,5)	(-8,2)	(7,3)	(13,1)	
L1D -304>	(-64,7)	(2,2)	(0,1)	(63,1)	(7,5)	(465,1)	(-14,1)	(64,1)	(-12,4)	(13,11)	(304,13)	(152,6)	(161,4)	(-128,50)	(5,1)	(6,2)	
L1D -303>	(1,1)	(381,1)	(-64,11)	(322,2)	(3,1)	(-16,2)	(32,1)	(27,1)	(1,0)	(1,0)	(1,0)	(1,0)	(1,0)	(1,0)	(1,0)	(1,0)	
L1D -302>	(6,1)	(-3,1)	(16,2)	(322,1)	(104,1)	(7,1)	(-64,5)	(301,3)	(409,11)	(-128,5)	(-2,7)	(118,1)	(174,1)	(310,1)	(1,0)	(1,0)	
L1D -301>	(-64,30)	(457,3)	(24,13)	(-8,18)	(449,4)	(1,5)	(301,1)	(300,1)	(9,2)	(79,1)	(-18,2)	(322,1)	(-4,6)	(64,2)	(203,1)	(7,1)	
L1D -300>	(-64,10)	(-4,4)	(94,1)	(0,3)	(64,7)	(300,5)	(122,1)	(192,11)	(183,3)	(-1,5)	(1,2)	(-8,8)	(9,2)	(197,3)	(99,1)	(-144,2)	
L1D -299>	(8,1)	(7,1)	(-2,1)	(246,1)	(495,1)	(-128,8)	(-76,1)	(121,2)	(448,1)	(299,1)	(14,1)	(-64,1)	(1,0)	(1,0)	(1,0)	(1,0)	
L1D -298>	(1,84)	(297,1)	(-24,9)	(113,1)	(6,4)	(-13,21)	(26,2)	(-64,1)	(-7,1)	(15,1)	(0,1)	(298,2)	(1,0)	(1,0)	(1,0)	(1,0)	
L1D -297>	(0,3)	(457,4)	(1,2)	(297,2)	(91,1)	(-64,5)	(264,2)	(275,1)	(89,2)	(272,1)	(-128,3)	(459,1)	(183,1)	(-63,1)	(6,2)	(-8,1)	
L1D -296>	(0,6)	(-64,30)	(97,1)	(169,2)	(-128,2)	(316,1)	(296,2)	(1,0)	(1,0)	(1,0)	(1,0)	(1,0)	(1,0)	(1,0)	(1,0)	(1,0)	
L1D -295>	(0,3)	(9,4)	(454,1)	(355,1)	(-128,9)	(461,1)	(337,2)	(361,1)	(139,1)	(56,1)	(-9,1)	(1,0)	(1,0)	(1,0)	(1,0)	(1,0)	
L1D -294>	(0,8)	(27,3)	(1,11)	(168,1)	(255,1)	(-128,2)	(294,1)	(291,1)	(179,1)	(8,1)	(211,1)	(-64,11)	(9,3)	(-24,1)	(15,41)	(287,1)	
L1D -293>	(457,8)	(264,10)	(313,2)	(272,3)	(458,4)	(293,5)	(165,1)	(201,1)	(330,1)	(275,1)	(288,7)	(197,18)	(337,6)	(361,16)	(326,9)	(459,3)	
L1D -292>	(258,2)	(-128,2)	(292,18)	(-9,7)	(337,4)	(281,2)	(64,1)	(288,2)	(317,2)	(361,10)	(326,5)	(246,3)	(472,1)	(-2,1)	(459,6)	(325,1)	
L1D -291>	(255,3)	(264,3)	(458,16)	(64,4)	(66,2)	(263,3)	(-9,3)	(280,2)	(298,3)	(2,1)	(322,1)	(272,1)	(258,1)	(183,1)	(-16,1)	(287,2)	
L1D -290>	(-8,9)	(470,2)	(263,10)	(0,5)	(350,1)	(276,1)	(273,1)	(197,6)	(112,2)	(384,1)	(342,1)	(-128,6)	(502,1)	(1,8)	(377,1)	(-9,2)	
L1D -289>	(457,35)	(264,126)	(280,5)	(267,18)	(354,4)	(272,72)	(260,5)	(263,25)	(275,92)	(288,42)	(265,5)	(250,11)	(0,1)	(290,2)	(271,2)	(-5,6)	
L1D -288>	(-128,9)	(326,1)	(-8,1)	(263,2)	(288,21)	(130,1)	(128,1)	(287,3)	(256,6)	(465,4)	(328,1)	(121,1)	(3,1)	(281,8)	(0,1)	(-72,1)	
L1D -287>	(68,1)	(183,1)	(-128,1)	(270,2)	(0,2)	(461,8)	(122,1)	(110,1)	(197,5)	(8,1)	(453,10)	(372,1)	(261,1)	(2,1)	(-64,2)	(1,0)	
L1D -286>	(121,2)	(-11,9)	(-64,19)	(393,2)	(-9,7)	(-7,59)	(-16,4)	(60,3)	(285,3)	(416,1)	(-5,8)	(7,2)	(1,2)	(-27,2)	(-18,1)	(-8,1)	
L1D -285>	(98,2)	(-8,1)	(241,1)	(285,7)	(449,2)	(64,1)	(329,1)	(-128,1)	(-9,2)	(275,1)	(465,2)	(-64,2)	(-16,1)	(94,1)	(372,1)	(197,3)	
L1D -284>	(97,2)	(0,2)	(255,2)	(284,21)	(409,2)	(249,4)	(252,2)	(256,2)	(250,2)	(197,2)	(273,3)	(280,4)	(465,1)	(-1,1)	(288,21)	(281,12)	
L1D -283>	(255,17)	(283,4)	(191,3)	(275,5)	(257,2)	(282,3)	(0,7)	(96,16)	(-128,1)	(273,1)	(1,28)	(272,1)	(304,1)	(26,1)	(353,1)	(337,1)	
L1D -282>	(255,3)	(0,8)	(470,3)	(286,2)	(342,2)	(282,6)	(1,2)	(304,2)	(5,1)	(287,1)	(274,1)	(67,1)	(313,2)	(197,15)	(-64,1)	(393,1)	
L1D -281>	(260,4)	(256,3)	(449,5)	(465,4)	(316,1)	(321,2)	(453,3)	(-128,9)	(304,2)	(183,5)	(275,11)	(274,7)	(268,17)	(292,6)	(290,2)	(265,6)	
L1D -280>	(-8,5)	(391,2)	(255,6)	(-64,22)	(267,2)	(-26,1)	(347,1)	(256,3)	(249,1)	(-128,10)	(252,7)	(74,1)	(197,1)	(273,1)	(-21,1)	(55,1)	
L1D -279>	(-32,16)	(256,23)	(0,4)	(-64,1)	(255,17)	(267,13)	(453,33)	(-128,15)	(197,8)	(-3,6)	(-26,2)	(-7,2)	(274,14)	(259,2)	(257,5)	(252,3)	
L1D -278>	(0,60)	(-64,2)	(103,1)	(-10,1)	(-40,1)	(-144,1)	(-7,2)	(272,1)	(-128,1)	(-32,1)	(-117,1)	(254,2)	(396,1)	(246,1)	(379,1)	(24,1)	
L1D -277>	(241,2)	(368,13)	(-5,2)	(361,7)	(365,3)	(350,2)	(277,40)	(337,6)	(275,4)	(-72,6)	(-15,3)	(0,2)	(10,1)	(272,1)	(259,1)	(352,5)	
L1D -276>	(-64,9)	(104,6)	(485,2)	(276,54)	(360,3)	(89,17)	(281,2)	(8,5)	(24,2)	(459,1)	(310,2)	(361,10)	(337,3)	(256,4)	(349,1)	(350,1)	
L1D -275>	(350,4)	(343,13)	(338,3)	(307,3)	(274,4)	(317,3)	(437,1)	(361,29)	(1,5)	(368,7)	(322,5)	(0,42)	(-64,8)	(315,4)	(345,2)	(463,14)	
L1D -274>	(-64,2)	(-128,2)	(276,7)	(309,10)	(0,15)	(454,2)	(-9,2)	(360,1)	(-2,4)	(89,1)	(8,1)	(249,4)	(459,1)	(274,2)	(1,7)	(-13,2)	
L1D -273>	(1,63)	(241,7)	(248,2)	(-128,1)	(256,3)	(264,1)	(290,5)	(273,1)	(249,1)	(475,1)	(67,1)	(465,1)	(272,5)	(121,1)	(0,1)	(259,3)	
L1D -272>	(0,91)	(1,8)	(256,3)	(291,2)	(-128,12)	(288,2)	(268,10)	(272,8)	(252,4)	(103,1)	(289,1)	(263,1)	(-6,1)	(264,26)	(260,13)	(473,1)	
L1D -271>	(1,65)	(-128,2)	(264,1)	(8,0)	(-32,0)	(0,2)	(437,7)	(428,0)	(-64,3)	(263,1)	(272,0)	(31,0)	(246,0)	(1,0)	(1,0)	(1,0)	
L1D -270>	(0,40)	(1,4)	(252,3)	(122,3)	(-64,19)	(270,12)	(-5,1)	(-128,25)	(16,17)	(-17,1)	(271,4)	(462,7)	(-8,1)	(-7,1)	(-123,2)	(69,1)	
L1D -269>	(392,1)	(240,1)	(466,2)	(468,2)	(448,3)	(457,1)	(-17,4)	(441,1)	(369,1)	(0,1)	(351,1)	(333,1)	(197,1)	(-23,1)	(447,1)	(400,1)	
L1D -268>	(1,20)	(465,13)	(258,7)	(288,17)	(268,5)	(292,1)	(256,72)	(273,6)	(248,8)	(0,4)	(252,8)	(249,6)	(282,8)	(272,2)	(250,4)	(281,13)	
L1D -267>	(95,59)	(106,4)	(437,1)	(288,2)	(264,2)	(215,2)	(272,2)	(1,45)	(307,5)	(444,12)	(0,20)	(-64,31)	(474,2)	(80,9)	(92,2)	(285,2)	
L1D -266>	(-1,6)	(272,1)	(266,11)	(264,2)	(0,22)	(267,3)	(-2,2)	(256,3)	(304,2)	(-128,2)	(276,6)	(293,2)	(268,3)	(288,2)	(250,3)	(248,2)	
L1D -265>	(290,7)	(268,45)	(276,10)	(-64,1)	(264,7)	(-16,7)	(275,12)	(288,15)	(256,9)	(265,8)	(273,3)	(292,2)	(465,16)	(272,2)	(304,7)	(260,3)	
L1D -264>	(250,8)	(-16,8)	(288,2)	(-128,9)	(-64,7)	(256,36)	(5,8)	(-5,17)	(284,15)	(264,43)	(296,6)	(300,3)	(-2,6)	(276,4)	(252,85)	(-8,3)	
L1D -263>	(245,5)	(437,18)	(-128,15)	(0,4)	(307,3)	(-16,3)	(344,1)	(-9,1)	(264,2)	(265,1)	(8,3)	(104,1)	(197,2)	(-7,2)	(420,1)	(10,1)	
L1D -262>	(-64,2)	(258,1)	(262,1)	(-22,1)	(469,3)	(8,1)	(270,2)	(0,9)	(310,1)	(10,2)	(377,3)	(5,3)	(183,4)	(261,2)	(197,1)	(105,1)	
L1D -261>	(243,4)	(270,11)	(122,11)	(183,26)	(261,21)	(0,9)	(1,5)	(197,2)	(377,2)	(465,4)	(115,3)	(8,7)	(-24,2)	(255,2)	(2,18)	(260,1)	
L1D -260>	(0,3)	(8,1)	(280,2)	(273,3)	(275,2)	(264,2)	(260,45)	(448,7)	(447,9)	(-1,4)	(122,5)	(112,6)	(268,7)	(121,10)	(465,5)	(319,2)	
L1D -259>	(310,9)	(290,11)	(292,7)	(250,4)	(112,10)	(7,1)	(264,10)	(5,3)	(120,4)	(268,3)	(287,4)	(2,11)	(121,14)	(0,14)	(105,4)	(122,15)	
L1D -258>	(465,6)	(0,14)	(276,15)	(258,15)	(293,2)	(273,2)	(264,6)	(476,3)	(267,15)	(1,2)	(416,8)	(121,7)	(384,3)	(112,4)	(268,10)	(251,2)	
L1D -257>	(264,31)	(250,18)	(1,8)	(64,10)	(284,5)	(465,23)	(0,64)	(258,20)	(282,5)	(275,29)	(266,5)	(304,5)	(120,6)	(260,29)	(268,88)	(72,18)	
L1D -256>	(465,9)	(297,3)	(256,16)	(446,2)	(-32,2)	(260,5)	(0,8)	(289,2)	(288,3)	(257,4)	(112,6)	(121,5)	(283,11)	(268,59)	(-64,1)	(282,6)	
L1D -255>	(0,11)	(73,5)	(255,28)	(183,2)	(112,1)	(-8,11)	(-64,8)	(219,4)	(191,2)	(-55,4)	(16,5)	(-86,2)	(-6,2)	(197,3)	(121,1)	(71,1)	
L1D -254>	(263,5)	(390,2)	(72,2)	(254,12)	(-7,2)	(36,2)	(7,2)	(197,2)	(-8,3)	(1,6)	(466,2)	(74,1)	(67,2)	(192,1)	(128,1)	(0,2)	
L1D -253>	(262,6)	(357,10)	(320,2)	(114,3)	(69,4)	(0,3)	(452,8)	(257,4)	(261,2)	(264,2)	(256,3)	(253,1)	(272,1)	(304,3)	(252,1)	(226,1)	
L1D -252>	(261,5)	(270,3)	(252,27)	(113,4)	(0,8)	(268,3)	(-64,7)	(244,1)	(256,5)	(3,2)	(240,2)	(-73,6)	(122,9)	(69,12)	(-6,2)	(55,11)	
L1D -251>	(448,0)	(112,0)	(-1,1)	(0,0)	(5,109)	(118,0)	(298,0)	(306,0)	(251,0)	(116,0)	(123,0)	(294,0)	(302,0)	(282,0)	(357,0)	(260,0)	
L1D -250>	(101,22)	(103,31)	(121,65)	(90,25)	(250,80)	(95,3)	(117,12)	(91,12)	(104,47)	(114,8)	(102,11)	(97,3)	(265,25)	(96,1)	(94,3)	(110,9)	
L1D -249>	(264,27)	(256,6)	(260,4)	(357,7)	(273,13)	(272,4)	(458,1)	(290,2)	(268,4)	(265,3)	(249,4)	(250,4)	(465,4)	(-64,7)	(288,4)	(257,2)	
L1D -248>	(447,23)	(273,2)	(-140,2)	(-64,4)	(256,2)	(257,2)	(268,7)	(0,1)	(296,2)	(16,9)	(446,10)	(113,1)	(240,2)	(236,4)	(248,2)	(-3,2)	
L1D -247>	(197,5)	(16,8)	(-8,2)	(337,6)	(-64,1)	(263,1)	(255,1)	(-3,1)	(8,20)	(276,1)	(346,4)	(373,4)	(246,1)	(357,1)	(364,1)	(326,2)	
L1D -246>	(40,9)	(-8,8)	(246,8)	(-64,12)	(-7,3)	(56,1)	(8,25)	(16,8)	(320,1)	(-22,1)	(453,1)	(396,3)	(-9,3)	(0,5)	(-76,9)	(238,1)	
L1D -245>	(-5,2)	(-104,6)	(245,2)	(459,2)	(-15,4)	(56,5)	(238,2)	(0,6)	(27,2)	(246,2)	(430,1)	(438,7)	(93,1)	(76,1)	(146,1)	(249,1)	
L1D -244>	(0,1)	(-64,18)	(10,4)	(263,1)	(55,2)	(243,2)	(-128,4)	(18,5)	(-6,1)	(357,1)	(-5,2)	(71,2)	(77,1)	(244,4)	(56,1)	(1,0)	
L1D -243>	(1,2)	(104,3)	(-64,9)	(97,3)	(316,1)	(345,8)	(324,2)	(368,2)	(361,5)	(322,1)	(350,2)	(329,1)	(113,1)	(-3,1)	(315,1)	(366,1)	
L1D -242>	(1,3)	(-64,3)	(55,1)	(435,24)	(431,4)	(8,1)	(-29,1)	(317,1)	(361,1)	(261,1)	(-72,3)	(0,1)	(1,0)	(1,0)	(1,0)	(1,0)	
L1D -241>	(-64,27)	(274,10)	(-9,31)	(209,5)	(246,5)	(10,4)	(241,2)	(448,2)	(1,2)	(64,1)	(-14,1)	(0,2)	(387,1)	(-75,1)	(282,1)	(261,2)	
L1D -240>	(0,2)	(-55,1)	(-64,18)	(64,78)	(447,2)	(-60,1)	(56,4)	(240,1)	(79,1)	(-73,0)	(1,0)	(1,0)	(1,0)	(1,0)	(1,0)	(1,0)	
L1D -239>	(57,1)	(0,6)	(1,10)	(320,4)	(-64,21)	(316,1)	(-9,1)	(357,2)	(56,2)	(10,2)	(-8,5)	(-16,1)	(-7,1)	(238,1)	(1,0)	(1,0)	
L1D -238>	(-64,13)	(266,7)	(185,3)	(430,1)	(-9,7)	(446,3)	(238,9)	(-8,9)	(0,5)	(404,5)	(398,3)	(275,2)	(174,1)	(450,4)	(357,2)	(221,1)	
L1D -237>	(56,2)	(309,5)	(237,9)	(251,9)	(260,1)	(303,2)	(283,1)	(345,1)	(352,1)	(324,1)	(43,1)	(55,3)	(377,2)	(404,1)	(1,1)	(13,3)	
L1D -236>	(-64,86)	(437,1)	(369,1)	(224,1)	(281,0)	(364,0)	(227,0)	(-8,0)	(18,0)	(427,2)	(433,0)	(232,0)	(-144,2)	(9,0)	(236,2)	(264,0)	
L1D -235>	(-64,3)	(-1,2)	(395,6)	(68,4)	(9,14)	(284,1)	(235,1)	(272,2)	(307,1)	(311,3)	(430,1)	(338,3)	(444,1)	(33,1)	(52,1)	(183,1)	
L1D -234>	(16,2)	(47,1)	(8,7)	(32,1)	(9,1)	(-64,2)	(-2,1)	(0,2)	(233,1)	(137,1)	(261,1)	(1,0)	(1,0)	(1,0)	(1,0)	(1,0)	
L1D -233>	(236,2)	(291,1)	(433,1)	(-40,1)	(233,2)	(442,1)	(7,1)	(0,1)	(232,2)	(272,1)	(8,1)	(349,1)	(1,0)	(1,0)	(1,0)	(1,0)	
L1D -232>	(-64,6)	(220,5)	(271,2)	(315,7)	(232,10)	(292,14)	(-128,1)	(429,5)	(-24,1)	(203,1)	(400,2)	(-32,1)	(191,1)	(224,3)	(431,1)	(1,18)	
L1D -231>	(-10,2)	(313,1)	(200,1)	(195,1)	(208,1)	(0,1)	(-64,9)	(165,1)	(395,95)	(284,16)	(24,1)	(-57,1)	(226,4)	(10,2)	(64,3)	(79,1)	
L1D -230>	(-64,6)	(301,1)	(-16,1)	(230,2)	(-128,1)	(357,1)	(223,2)	(64,6)	(78,1)	(0,1)	(79,1)	(8,1)	(1,0)	(1,0)	(1,0)	(1,0)	
L1D -229>	(-64,6)	(243,2)	(301,2)	(229,5)	(9,2)	(442,2)	(8,2)	(1,2)	(217,2)	(24,1)	(419,19)	(0,2)	(415,3)	(42,1)	(63,1)	(214,1)	
L1D -228>	(-1,2)	(32,2)	(415,3)	(228,2)	(9,6)	(292,10)	(315,9)	(-8,2)	(296,5)	(236,6)	(-64,5)	(24,4)	(429,11)	(419,4)	(21,2)	(408,1)	
L1D -227>	(1,3)	(-1,7)	(227,30)	(2,11)	(28,2)	(9,2)	(-64,3)	(82,1)	(80,1)	(357,7)	(435,2)	(21,5)	(24,1)	(311,1)	(338,2)	(395,1)	
L1D -226>	(227,5)	(0,20)	(265,1)	(226,23)	(-55,7)	(-18,7)	(188,2)	(222,2)	(-60,6)	(310,5)	(-1,2)	(14,3)	(8,6)	(28,5)	(24,5)	(21,4)	
L1D -225>	(0,26)	(232,2)	(218,4)	(1,11)	(225,6)	(236,5)	(-64,2)	(-8,2)	(21,2)	(227,3)	(16,3)	(-257,3)	(64,1)	(79,1)	(139,1)	(24,2)	
L1D -224>	(208,3)	(-64,57)	(-222,3)	(224,10)	(0,7)	(16,7)	(223,1)	(236,3)	(232,1)	(433,1)	(250,1)	(251,1)	(-248,3)	(199,10)	(211,8)	(228,2)	
L1D -223>	(71,1)	(64,4)	(0,5)	(223,4)	(227,18)	(302,1)	(192,1)	(-64,14)	(387,17)	(276,3)	(79,1)	(1,0)	(1,0)	(1,0)	(1,0)	(1,0)	
L1D -222>	(226,6)	(446,3)	(411,3)	(51,2)	(17,2)	(-257,2)	(-183,2)	(407,1)	(57,2)	(49,6)	(33,5)	(208,11)	(1,2)	(41,1)	(48,1)	(424,1)	
L1D -221>	(1,9)	(-8,1)	(3,1)	(-3,1)	(220,1)	(-64,1)	(24,1)	(64,3)	(0,2)	(-17,1)	(310,2)	(16,1)	(32,2)	(-175,2)	(197,1)	(1,0)	
L1D -220>	(-9,4)	(0,14)	(2,7)	(24,6)	(-7,2)	(208,3)	(-8,5)	(-2,2)	(228,3)	(209,2)	(8,4)	(18,3)	(21,1)	(-64,13)	(200,1)	(-33,1)	
L1D -219>	(-9,8)	(-258,3)	(7,4)	(2,5)	(266,2)	(232,2)	(211,3)	(14,2)	(255,6)	(0,3)	(9,2)	(-64,15)	(24,3)	(395,3)	(21,2)	(72,3)	
L1D -218>	(-130,3)	(-191,4)	(193,3)	(400,4)	(0,27)	(-2,4)	(51,9)	(21,5)	(9,3)	(1,8)	(217,6)	(203,8)	(-8,7)	(270,1)	(219,2)	(208,3)	
L1D -217>	(0,6)	(316,1)	(210,2)	(224,1)	(60,2)	(217,7)	(-184,1)	(-248,7)	(232,2)	(209,3)	(211,1)	(208,1)	(-8,1)	(4,1)	(88,4)	(-128,1)	
L1D -216>	(192,3)	(0,22)	(-64,12)	(407,40)	(195,5)	(27,22)	(39,16)	(193,4)	(35,1)	(254,2)	(43,26)	(204,32)	(257,2)	(191,27)	(203,19)	(-128,4)	
L1D -215>	(407,6)	(0,32)	(403,9)	(-257,18)	(-64,3)	(255,14)	(379,11)	(219,6)	(268,2)	(-118,3)	(191,4)	(2,1)	(-192,7)	(118,1)	(208,1)	(1,8)	
L1D -214>	(0,58)	(8,11)	(-258,4)	(406,8)	(410,2)	(214,2)	(409,4)	(182,3)	(-266,2)	(202,4)	(-128,4)	(224,1)	(30,1)	(17,1)	(13,2)	(25,2)	
L1D -213>	(0,36)	(-249,6)	(15,2)	(-259,4)	(392,4)	(-64,7)	(64,7)	(-252,9)	(68,4)	(213,9)	(296,1)	(-194,2)	(86,1)	(85,3)	(-7,1)	(16,1)	
L1D -212>	(124,4)	(92,7)	(208,2)	(-197,2)	(80,9)	(-7,4)	(0,37)	(212,71)	(101,3)	(38,4)	(16,3)	(41,2)	(310,8)	(191,5)	(-260,1)	(8,1)	
L1D -211>	(-259,7)	(83,9)	(-249,3)	(195,3)	(-251,3)	(-198,6)	(1,2)	(0,9)	(-7,2)	(-64,26)	(168,2)	(294,1)	(401,2)	(-24,1)	(364,1)	(211,5)	
L1D -210>	(8,9)	(0,11)	(90,27)	(210,6)	(-16,3)	(-2,6)	(-64,9)	(-8,2)	(146,11)	(209,5)	(310,2)	(311,3)	(-183,3)	(9,4)	(74,3)	(82,1)	
L1D -209>	(-139,6)	(-200,6)	(115,2)	(-259,2)	(118,2)	(-9,6)	(401,4)	(71,4)	(9,3)	(91,1)	(0,8)	(83,2)	(8,13)	(81,2)	(7,1)	(-256,17)	
L1D -208>	(-200,19)	(80,11)	(9,7)	(208,85)	(200,2)	(-64,7)	(188,2)	(-16,2)	(8,7)	(76,1)	(-21,1)	(-264,8)	(-128,5)	(35,4)	(34,1)	(2,1)	
L1D -207>	(-258,7)	(0,35)	(209,3)	(-247,4)	(3,1)	(-265,5)	(-200,18)	(-232,14)	(-64,47)	(207,18)	(-128,9)	(168,5)	(-8,5)	(236,3)	(364,16)	(9,11)	
L1D -206>	(-128,4)	(0,12)	(-252,1)	(58,2)	(-64,14)	(-143,2)	(398,53)	(404,77)	(250,2)	(5,3)	(276,25)	(206,14)	(185,6)	(254,3)	(182,2)	(88,2)	
L1D -205>	(0,9)	(-64,10)	(402,6)	(197,1)	(205,11)	(8,5)	(-21,7)	(377,5)	(283,2)	(384,13)	(-8,2)	(185,12)	(213,2)	(233,2)	(404,63)	(246,4)	
L1D -204>	(-249,8)	(15,6)	(43,24)	(-64,8)	(208,19)	(85,3)	(-4,109)	(-204,4)	(209,22)	(204,71)	(14,2)	(27,23)	(-217,2)	(0,51)	(207,2)	(60,2)	
L1D -203>	(192,8)	(-249,7)	(15,4)	(63,9)	(69,9)	(-128,10)	(139,6)	(-64,61)	(0,10)	(215,1)	(198,2)	(183,2)	(-205,7)	(203,6)	(72,3)	(255,4)	
L1D -202>	(63,5)	(69,5)	(-249,6)	(15,8)	(-1,12)	(-259,7)	(192,7)	(90,2)	(-228,4)	(202,11)	(-128,4)	(213,12)	(-206,27)	(87,4)	(-24,11)	(0,7)	
L1D -201>	(-194,7)	(-1,10)	(63,10)	(69,10)	(208,13)	(201,6)	(211,3)	(-264,23)	(0,21)	(-24,25)	(191,6)	(209,8)	(-64,4)	(153,2)	(197,13)	(313,3)	
L1D -200>	(-1,10)	(-64,31)	(200,23)	(213,5)	(-11,4)	(0,13)	(196,6)	(-24,1)	(203,2)	(-18,3)	(-9,9)	(220,4)	(209,27)	(8,8)	(208,15)	(38,7)	
L1D -199>	(-64,46)	(9,4)	(183,2)	(356,4)	(68,3)	(199,7)	(0,5)	(-21,1)	(-7,2)	(56,9)	(-57,1)	(60,27)	(-248,1)	(-232,1)	(12,1)	(23,2)	
L1D -198>	(201,4)	(-64,15)	(0,9)	(1,8)	(-128,9)	(197,4)	(55,12)	(-3,4)	(377,1)	(203,3)	(267,3)	(59,41)	(409,8)	(-28,8)	(-248,10)	(9,3)	
L1D -197>	(0,111)	(393,4)	(183,13)	(377,26)	(-67,2)	(197,34)	(185,5)	(404,3)	(-69,2)	(-64,6)	(199,3)	(5,14)	(-3,3)	(385,3)	(313,2)	(-5,1)	
L1D -196>	(-197,26)	(-24,14)	(0,46)	(8,5)	(49,11)	(-171,4)	(-213,5)	(311,4)	(53,2)	(188,3)	(196,61)	(1,4)	(58,2)	(209,3)	(213,3)	(195,3)	
L1D -195>	(274,7)	(238,8)	(190,8)	(176,8)	(-214,11)	(195,29)	(-1,11)	(14,9)	(240,3)	(241,3)	(7,30)	(-5,1)	(92,3)	(-64,9)	(213,5)	(0,4)	
L1D -194>	(-64,19)	(66,6)	(220,4)	(317,3)	(194,25)	(91,3)	(-60,7)	(0,29)	(209,6)	(155,28)	(51,3)	(-275,7)	(7,77)	(90,1)	(131,5)	(222,2)	
L1D -193>	(193,6)	(16,4)	(90,1)	(-242,13)	(177,3)	(154,22)	(71,2)	(209,2)	(227,1)	(-161,1)	(7,117)	(8,64)	(-289,9)	(325,1)	(-64,1)	(10,1)	
L1D -192>	(192,59)	(7,93)	(33,7)	(-28,13)	(-257,8)	(56,76)	(-279,7)	(155,10)	(193,10)	(153,64)	(316,4)	(-175,19)	(-17,11)	(-26,5)	(0,17)	(72,6)	
L1D -191>	(9,2)	(-64,12)	(-216,5)	(7,99)	(191,14)	(154,9)	(153,7)	(0,5)	(71,4)	(-1,4)	(152,81)	(6,4)	(-232,6)	(44,9)	(59,3)	(55,84)	
L1D -190>	(153,30)	(7,111)	(152,14)	(-64,30)	(-2,6)	(6,2)	(255,3)	(191,2)	(-55,1)	(0,10)	(197,14)	(-228,4)	(-289,19)	(9,2)	(190,10)	(151,73)	
L1D -189>	(152,34)	(-55,1)	(7,68)	(293,1)	(1,1)	(157,4)	(393,9)	(-64,2)	(204,3)	(32,2)	(151,5)	(150,30)	(53,11)	(-175,2)	(189,3)	(69,2)	
L1D -188>	(1,5)	(151,29)	(7,97)	(188,7)	(172,2)	(0,14)	(150,8)	(-197,10)	(9,2)	(-8,2)	(156,3)	(64,2)	(91,5)	(-205,8)	(186,1)	(149,8)	
L1D -187>	(-1,8)	(150,3)	(-64,5)	(-190,2)	(187,6)	(7,78)	(-206,12)	(-181,4)	(148,2)	(255,2)	(219,1)	(-276,1)	(0,5)	(51,1)	(-22,1)	(-158,1)	
L1D -186>	(213,1)	(197,4)	(186,7)	(7,81)	(-15,2)	(2,3)	(64,1)	(154,5)	(187,1)	(148,5)	(57,0)	(-64,8)	(1,2)	(-206,1)	(-5,1)	(-279,0)	
L1D -185>	(7,79)	(-279,1)	(197,1)	(185,3)	(191,1)	(-190,0)	(377,0)	(1,1)	(-34,0)	(5,0)	(27,0)	(2,1)	(-2,0)	(153,6)	(-72,1)	(-64,2)	
L1D -184>	(-231,2)	(7,124)	(6,2)	(-5,3)	(184,4)	(-64,23)	(152,4)	(-216,4)	(1,7)	(-1,2)	(168,1)	(-288,5)	(4,2)	(64,2)	(2,4)	(-205,4)	
L1D -183>	(6,2)	(151,1)	(7,87)	(-289,14)	(183,8)	(255,0)	(-276,4)	(1,4)	(220,0)	(175,0)	(-18,0)	(-282,0)	(2,3)	(0,1)	(-273,0)	(197,4)	
L1D -182>	(7,66)	(163,119)	(-3,2)	(1,5)	(-19,16)	(182,2)	(-134,1)	(-5,2)	(-9,6)	(183,1)	(-2,1)	(2,2)	(6,7)	(-15,3)	(306,1)	(8,0)	
L1D -181>	(-5,2)	(181,2)	(7,66)	(-200,1)	(389,1)	(1,7)	(-264,5)	(-64,27)	(-284,4)	(-26,3)	(2,3)	(0,6)	(-6,1)	(6,3)	(-8,0)	(193,1)	
L1D -180>	(-284,8)	(116,3)	(7,119)	(-5,5)	(180,15)	(-197,60)	(-64,1)	(1,15)	(8,3)	(0,6)	(-14,4)	(-26,2)	(6,2)	(-21,1)	(2,7)	(-192,15)	
L1D -179>	(-5,6)	(179,6)	(7,124)	(-25,1)	(82,1)	(163,2)	(2,4)	(71,0)	(64,3)	(1,18)	(-198,1)	(-1,1)	(-205,0)	(-64,15)	(51,10)	(-206,1)	
L1D -178>	(7,89)	(-72,5)	(178,8)	(-5,3)	(1,11)	(163,51)	(-64,1)	(-4,0)	(2,5)	(6,5)	(-1,1)	(64,1)	(128,1)	(-23,0)	(-279,0)	(50,6)	
L1D -177>	(7,80)	(255,1)	(59,1)	(-5,2)	(177,4)	(-64,13)	(49,2)	(191,1)	(6,1)	(15,0)	(1,13)	(163,0)	(0,4)	(294,0)	(-103,0)	(2,0)	
L1D -176>	(300,24)	(112,79)	(61,15)	(7,85)	(50,6)	(292,35)	(66,1)	(60,33)	(1,13)	(49,16)	(43,4)	(48,4)	(44,4)	(53,13)	(59,13)	(380,8)	
L1D -175>	(176,1)	(7,73)	(18,0)	(1,7)	(-102,0)	(175,6)	(-5,3)	(6,1)	(-64,19)	(-129,0)	(-1,1)	(2,1)	(-103,0)	(-70,2)	(4,0)	(-2,0)	
L1D -174>	(7,80)	(-5,2)	(-284,0)	(1,7)	(174,9)	(-4,0)	(56,1)	(6,1)	(163,19)	(2,1)	(-263,10)	(-64,0)	(-279,4)	(-128,0)	(-217,0)	(175,5)	
L1D -173>	(173,13)	(7,106)	(-64,1)	(2,4)	(174,6)	(59,1)	(6,2)	(1,10)	(-21,0)	(-81,0)	(3,0)	(-1,0)	(18,1)	(-204,0)	(61,0)	(-4,0)	
L1D -172>	(0,1)	(190,2)	(3,1)	(172,11)	(-5,2)	(-64,3)	(1,11)	(7,73)	(-24,0)	(6,9)	(2,1)	(151,3)	(184,1)	(-7,0)	(44,0)	(173,3)	
L1D -171>	(64,1)	(7,109)	(171,22)	(6,29)	(-5,8)	(21,1)	(1,94)	(-1,3)	(44,1)	(-64,5)	(-2,1)	(172,6)	(51,11)	(2,8)	(59,4)	(43,0)	
L1D -170>	(170,10)	(-267,1)	(6,16)	(-5,3)	(-1,8)	(52,0)	(1,81)	(-31,0)	(-64,8)	(171,6)	(-4,0)	(31,0)	(18,0)	(2,7)	(36,0)	(7,0)	
L1D -169>	(169,12)	(1,127)	(-5,3)	(-1,4)	(-64,1)	(-71,1)	(6,1)	(170,5)	(-79,1)	(2,3)	(-46,1)	(8,0)	(17,0)	(-23,0)	(-14,0)	(0,0)	
L1D -168>	(6,2)	(-5,10)	(-70,1)	(1,108)	(168,18)	(-102,3)	(169,8)	(17,0)	(0,3)	(18,0)	(2,4)	(21,0)	(7,0)	(5,2)	(-2,0)	(-15,2)	
L1D -167>	(-5,7)	(167,12)	(-292,1)	(1,93)	(-284,1)	(-291,3)	(151,0)	(-30,1)	(-34,5)	(-64,0)	(2,2)	(18,0)	(0,0)	(-305,0)	(-162,0)	(-16,0)	
L1D -166>	(-5,3)	(166,11)	(1,80)	(-31,2)	(-35,10)	(6,1)	(167,5)	(-271,9)	(7,1)	(-64,1)	(-287,2)	(4,0)	(2,3)	(-6,0)	(-4,0)	(-47,0)	
L1D -165>	(-5,49)	(165,39)	(-293,20)	(166,2)	(1,97)	(18,8)	(6,2)	(2,31)	(-46,2)	(-4,6)	(28,2)	(0,3)	(61,2)	(8,8)	(10,11)	(-128,26)	
L1D -164>	(6,7)	(9,2)	(-5,70)	(164,22)	(-64,2)	(-37,3)	(1,58)	(-4,6)	(151,1)	(2,55)	(-231,36)	(-223,4)	(165,5)	(-46,3)	(184,1)	(-215,3)	
L1D -163>	(191,38)	(192,21)	(187,38)	(0,28)	(186,16)	(149,1)	(190,35)	(189,27)	(155,3)	(163,25)	(154,9)	(193,12)	(64,6)	(188,6)	(52,6)	(1,109)	
L1D -162>	(186,15)	(191,19)	(56,6)	(190,13)	(59,19)	(189,15)	(184,5)	(-229,5)	(-222,3)	(163,1)	(192,3)	(188,10)	(-215,3)	(1,81)	(0,12)	(187,14)	
L1D -161>	(-260,1)	(7,0)	(-46,0)	(1,93)	(-293,0)	(2,1)	(21,2)	(168,0)	(33,1)	(15,0)	(-3,0)	(-20,1)	(181,1)	(43,0)	(167,0)	(8,0)	
L1D -160>	(-64,3)	(-24,3)	(-235,4)	(1,125)	(-12,1)	(18,2)	(160,2)	(24,2)	(-61,6)	(32,2)	(7,2)	(2,4)	(-59,5)	(21,1)	(0,7)	(-188,1)	
L1D -159>	(-4,4)	(-292,2)	(40,2)	(164,1)	(1,127)	(159,2)	(-31,1)	(23,2)	(153,1)	(4,1)	(-11,1)	(41,1)	(7,4)	(-3,3)	(15,1)	(10,2)	
L1D -158>	(-43,0)	(-123,0)	(7,1)	(154,0)	(2,0)	(-4,1)	(0,2)	(-3,6)	(1,64)	(-2,0)	(121,0)	(3,1)	(13,0)	(-23,0)	(332,1)	(18,0)	
L1D -157>	(2,1)	(10,3)	(-128,7)	(1,98)	(149,1)	(28,1)	(6,2)	(161,1)	(-8,0)	(-6,0)	(39,0)	(13,3)	(157,0)	(7,0)	(18,0)	(-24,1)	
L1D -156>	(-128,10)	(16,7)	(2,23)	(-16,5)	(-1,2)	(6,10)	(28,9)	(15,11)	(7,8)	(5,9)	(177,10)	(-288,7)	(156,11)	(1,15)	(10,111)	(152,3)	
L1D -155>	(-238,3)	(1,14)	(52,3)	(-7,12)	(0,6)	(5,63)	(10,113)	(-128,12)	(-6,1)	(155,6)	(3,3)	(-64,2)	(24,2)	(2,24)	(-10,2)	(157,8)	
L1D -154>	(-261,1)	(32,5)	(14,3)	(134,2)	(7,12)	(136,2)	(156,8)	(24,7)	(10,105)	(-95,3)	(151,5)	(2,35)	(-3,3)	(154,15)	(-7,3)	(25,2)	
L1D -153>	(13,2)	(163,31)	(10,74)	(-139,13)	(0,7)	(151,3)	(2,9)	(153,14)	(155,11)	(24,10)	(-4,4)	(-30,1)	(-34,2)	(152,2)	(-11,1)	(-8,1)	
L1D -152>	(10,83)	(-3,6)	(152,18)	(-139,4)	(-292,3)	(-35,2)	(0,3)	(2,26)	(24,7)	(151,8)	(8,1)	(-13,6)	(9,11)	(7,5)	(1,1)	(149,2)	
L1D -151>	(270,1)	(-309,3)	(148,4)	(187,9)	(-18,2)	(-11,3)	(9,3)	(4,23)	(151,59)	(2,72)	(207,3)	(11,2)	(24,5)	(150,2)	(7,9)	(-8,11)	
L1D -150>	(4,22)	(7,45)	(-6,80)	(-1,3)	(16,73)	(5,12)	(150,22)	(-8,12)	(324,3)	(-4,10)	(3,10)	(13,19)	(332,5)	(2,5)	(152,1)	(14,2)	
L1D -149>	(8,60)	(64,4)	(0,48)	(-5,10)	(7,92)	(-50,6)	(-16,9)	(-13,4)	(149,65)	(4,6)	(6,8)	(-64,8)	(14,9)	(151,1)	(-139,4)	(47,6)	
L1D -148>	(-128,122)	(0,12)	(8,6)	(169,11)	(-24,11)	(1,40)	(-22,6)	(133,8)	(-5,8)	(21,4)	(-15,2)	(3,6)	(-1,10)	(-13,12)	(-19,6)	(7,96)	
L1D -147>	(64,11)	(-23,6)	(-26,13)	(-128,8)	(11,17)	(0,32)	(-64,14)	(-20,8)	(132,50)	(14,1)	(1,22)	(8,50)	(-2,10)	(-24,31)	(7,93)	(-19,10)	
L1D -146>	(64,4)	(-2,4)	(7,23)	(-26,14)	(-19,7)	(-20,8)	(-4,9)	(-1,4)	(1,65)	(-3,25)	(9,101)	(146,5)	(-128,4)	(-24,28)	(-22,7)	(11,4)	
L1D -145>	(64,5)	(8,11)	(0,66)	(-19,29)	(-20,13)	(-13,15)	(-27,3)	(146,1)	(-24,50)	(11,5)	(150,2)	(-4,3)	(-5,10)	(-63,2)	(-26,34)	(1,14)	
L1D -144>	(-9,27)	(-16,11)	(0,40)	(-26,30)	(-22,11)	(15,2)	(-37,8)	(-8,3)	(-64,52)	(-24,55)	(-19,32)	(-13,10)	(-20,22)	(-5,20)	(7,8)	(133,6)	
L1D -143>	(-61,6)	(7,13)	(-26,50)	(143,12)	(-85,5)	(-24,73)	(-20,13)	(0,41)	(5,6)	(24,4)	(8,82)	(-12,7)	(-64,15)	(-19,14)	(-10,7)	(11,1)	
L1D -142>	(-24,72)	(0,18)	(-16,14)	(7,30)	(-7,6)	(-19,19)	(-20,17)	(9,10)	(-260,1)	(2,7)	(-1,19)	(-13,7)	(47,17)	(-179,4)	(-26,33)	(-22,12)	
L1D -141>	(-8,16)	(2,52)	(133,9)	(-5,15)	(-128,7)	(-26,32)	(-24,81)	(8,6)	(0,36)	(-19,28)	(-22,20)	(-3,1)	(134,12)	(-20,22)	(136,8)	(137,8)	
L1D -140>	(133,11)	(2,66)	(135,10)	(11,37)	(-8,9)	(-22,12)	(-19,36)	(1,21)	(-64,31)	(8,65)	(-20,19)	(-17,33)	(0,58)	(-9,5)	(-24,87)	(-1,1)	
L1D -139>	(-7,5)	(-24,12)	(133,8)	(-19,4)	(-128,10)	(-4,20)	(-1,96)	(11,5)	(-5,9)	(2,15)	(-10,17)	(-26,1)	(-15,9)	(-9,2)	(10,15)	(8,9)	
L1D -138>	(2,94)	(-24,83)	(5,7)	(48,1)	(135,21)	(-4,6)	(64,14)	(-26,22)	(-22,13)	(134,34)	(-64,9)	(-5,25)	(-20,20)	(-59,22)	(-19,24)	(133,30)	
L1D -137>	(4,7)	(1,4)	(149,10)	(-11,10)	(133,57)	(-8,10)	(-20,30)	(9,15)	(-24,83)	(-26,9)	(2,125)	(0,27)	(13,1)	(-65,4)	(-5,38)	(137,49)	
L1D -136>	(133,4)	(-24,3)	(-20,1)	(16,76)	(8,1)	(140,1)	(144,18)	(-19,2)	(4,3)	(2,8)	(136,6)	(-5,3)	(128,0)	(134,2)	(135,3)	(41,1)	
L1D -135>	(2,50)	(0,126)	(13,1)	(-24,49)	(-8,9)	(135,54)	(133,43)	(4,7)	(-20,44)	(15,33)	(1,124)	(-19,29)	(-5,52)	(-3,11)	(-7,18)	(134,49)	
L1D -134>	(133,57)	(2,107)	(8,22)	(134,32)	(-5,21)	(-20,61)	(9,5)	(14,20)	(-24,32)	(0,1)	(-7,2)	(15,9)	(-19,37)	(-3,3)	(316,4)	(-22,6)	
L1D -133>	(132,112)	(2,9)	(130,120)	(3,1)	(133,15)	(128,7)	(-24,3)	(-31,1)	(-20,16)	(13,6)	(-21,1)	(-19,6)	(8,0)	(0,2)	(6,0)	(-5,3)	
L1D -132>	(-19,21)	(0,13)	(-3,13)	(-64,6)	(8,25)	(-20,60)	(-58,6)	(132,72)	(-59,27)	(19,2)	(-22,3)	(-128,2)	(-2,8)	(130,30)	(1,8)	(2,4)	
L1D -131>	(-1,4)	(8,3)	(9,3)	(4,4)	(-65,1)	(-20,78)	(-59,3)	(1,12)	(136,2)	(64,2)	(-5,32)	(-8,12)	(131,5)	(-64,3)	(-22,3)	(-10,4)	
L1D -130>	(130,64)	(132,40)	(-10,57)	(-128,17)	(-20,90)	(127,5)	(-14,8)	(-16,3)	(-27,3)	(-65,8)	(-40,6)	(-64,15)	(-63,14)	(-1,6)	(-31,1)	(-5,37)	
L1D -129>	(-1,73)	(84,1)	(72,1)	(0,10)	(-24,6)	(-290,1)	(59,2)	(112,1)	(9,2)	(-6,3)	(21,1)	(-8,1)	(58,1)	(32,1)	(-9,0)	(-2,0)	
L1D -128>	(7,12)	(24,16)	(-1,18)	(128,64)	(-59,33)	(129,18)	(-8,16)	(17,4)	(-61,4)	(16,58)	(9,17)	(276,12)	(309,1)	(267,7)	(8,10)	(0,13)	
L1D -127>	(4,6)	(0,14)	(1,37)	(-7,1)	(64,2)	(155,2)	(83,6)	(72,2)	(9,3)	(2,20)	(-27,10)	(-1,2)	(127,12)	(136,2)	(8,4)	(46,2)	
L1D -126>	(-44,2)	(-8,3)	(-1,0)	(-9,0)	(-60,3)	(8,2)	(-27,65)	(145,0)	(-45,2)	(333,0)	(-7,0)	(126,9)	(7,5)	(1,8)	(128,0)	(-3,1)	
L1D -125>	(21,8)	(-1,5)	(-8,3)	(-44,2)	(8,8)	(9,2)	(129,10)	(1,4)	(4,2)	(-60,2)	(0,14)	(-7,2)	(-243,5)	(125,14)	(-192,1)	(-72,1)	
L1D -124>	(8,105)	(-1,4)	(-44,12)	(7,12)	(0,5)	(130,16)	(126,13)	(-26,3)	(124,18)	(2,18)	(-27,3)	(-192,2)	(32,2)	(212,2)	(-7,5)	(137,16)	
L1D -123>	(-7,106)	(-45,8)	(1,18)	(64,12)	(125,5)	(-38,7)	(-71,98)	(123,65)	(4,7)	(38,1)	(-5,11)	(-8,19)	(-72,24)	(0,5)	(2,9)	(118,4)	
L1D -122>	(130,118)	(64,102)	(-1,11)	(133,7)	(14,24)	(127,61)	(132,63)	(-27,6)	(7,1)	(48,6)	(124,78)	(-32,4)	(-8,12)	(-2,2)	(119,5)	(126,2)	
L1D -121>	(-282,2)	(-8,3)	(-26,2)	(-1,3)	(14,4)	(0,6)	(130,1)	(64,82)	(-4,2)	(-14,3)	(17,2)	(8,3)	(116,1)	(-15,1)	(-24,1)	(1,2)	
L1D -120>	(0,121)	(-14,52)	(3,24)	(2,62)	(-25,10)	(1,60)	(-4,11)	(4,20)	(-24,4)	(-15,15)	(120,6)	(-26,7)	(-27,6)	(64,9)	(15,1)	(-16,54)	
L1D -119>	(-8,17)	(0,69)	(64,9)	(3,45)	(-3,15)	(-1,18)	(18,12)	(124,1)	(-6,6)	(120,13)	(1,31)	(5,19)	(113,17)	(2,54)	(119,22)	(-4,107)	
L1D -118>	(-1,110)	(7,4)	(-8,14)	(130,28)	(8,3)	(-256,4)	(-5,4)	(14,28)	(333,3)	(-69,1)	(239,2)	(119,4)	(-32,5)	(118,4)	(-90,2)	(-192,3)	
L1D -117>	(130,15)	(-77,2)	(21,2)	(-9,3)	(-1,43)	(117,8)	(0,30)	(122,2)	(-4,3)	(119,3)	(208,4)	(14,4)	(8,32)	(-8,8)	(-257,2)	(-51,1)	
L1D -116>	(-8,41)	(8,6)	(130,20)	(-4,8)	(-1,43)	(60,3)	(-252,6)	(-261,3)	(0,12)	(-9,6)	(-2,5)	(-10,18)	(9,5)	(85,5)	(-197,12)	(123,9)	
L1D -115>	(64,11)	(-1,6)	(-4,2)	(-3,2)	(7,22)	(8,8)	(-16,13)	(115,5)	(-7,7)	(21,2)	(-262,5)	(-77,4)	(-26,2)	(-79,1)	(123,2)	(0,7)	
L1D -114>	(64,28)	(-4,3)	(-88,1)	(1,44)	(-1,3)	(16,3)	(24,4)	(40,16)	(57,2)	(7,21)	(8,10)	(116,2)	(9,7)	(114,5)	(-16,71)	(11,11)	
L1D -113>	(0,12)	(64,38)	(-7,9)	(-16,5)	(113,2)	(8,18)	(72,2)	(-8,4)	(-1,6)	(-9,14)	(-94,2)	(-95,1)	(-104,2)	(-72,5)	(-83,1)	(16,1)	
L1D -112>	(0,5)	(9,1)	(-1,8)	(64,66)	(18,1)	(-111,1)	(124,1)	(-5,1)	(120,0)	(7,0)	(130,1)	(4,2)	(-16,0)	(112,1)	(-12,0)	(-13,0)	
L1D -111>	(102,6)	(-1,40)	(111,19)	(130,3)	(-5,1)	(110,3)	(7,28)	(64,8)	(204,5)	(-8,29)	(27,4)	(-16,3)	(-93,2)	(0,2)	(-256,2)	(3,3)	
L1D -110>	(-16,4)	(7,5)	(204,4)	(-8,100)	(0,10)	(-40,2)	(308,1)	(8,20)	(27,6)	(-28,1)	(-200,1)	(64,2)	(130,2)	(9,29)	(24,3)	(43,2)	
L1D -109>	(-6,14)	(0,15)	(-9,4)	(-81,2)	(113,13)	(-18,2)	(-4,3)	(-8,43)	(100,3)	(108,2)	(33,1)	(-7,3)	(-1,5)	(8,15)	(109,3)	(7,2)	
L1D -108>	(-1,6)	(130,21)	(-272,2)	(0,6)	(-8,22)	(111,2)	(40,3)	(-9,2)	(-302,2)	(4,2)	(107,2)	(-63,1)	(-7,1)	(-21,5)	(-86,1)	(-256,1)	
L1D -107>	(-9,6)	(-3,4)	(32,2)	(8,4)	(31,2)	(-1,2)	(36,2)	(-24,7)	(-6,3)	(-12,2)	(123,2)	(9,2)	(-87,2)	(-86,2)	(-8,5)	(2,12)	
L1D -106>	(-276,2)	(12,9)	(-25,2)	(-5,7)	(32,7)	(0,2)	(105,35)	(-16,13)	(-24,15)	(-272,2)	(-3,3)	(-4,2)	(-101,2)	(308,1)	(-82,1)	(-10,1)	
L1D -105>	(64,47)	(-5,1)	(-1,96)	(7,1)	(32,1)	(-24,1)	(21,13)	(24,3)	(0,2)	(105,1)	(-9,1)	(112,2)	(2,1)	(-14,0)	(1,0)	(-254,1)	
L1D -104>	(36,10)	(-14,17)	(-21,8)	(2,25)	(64,68)	(-24,13)	(-18,2)	(-7,19)	(103,3)	(9,44)	(119,3)	(0,6)	(104,21)	(21,12)	(14,8)	(28,14)	
L1D -103>	(-1,64)	(0,0)	(28,0)	(-7,0)	(103,0)	(-8,0)	(71,0)	(9,0)	(64,0)	(8,0)	(-6,0)	(-11,0)	(112,0)	(27,0)	(-110,0)	(-16,2)	
L1D -102>	(220,3)	(6,66)	(-1,80)	(8,17)	(101,10)	(-8,13)	(-6,100)	(-16,37)	(43,6)	(-265,2)	(64,11)	(1,4)	(33,2)	(32,4)	(9,10)	(0,13)	
L1D -101>	(-2,4)	(308,7)	(-21,10)	(-24,5)	(-1,25)	(128,8)	(9,4)	(64,9)	(8,5)	(7,2)	(-16,9)	(101,3)	(0,12)	(-264,6)	(-7,19)	(42,4)	
L1D -100>	(-183,4)	(224,4)	(64,5)	(16,17)	(-21,5)	(-81,3)	(-32,3)	(27,3)	(-1,6)	(253,35)	(-7,14)	(-101,6)	(39,9)	(24,1)	(31,2)	(6,6)	
L1D -99>	(-9,40)	(0,11)	(-272,2)	(8,2)	(10,5)	(-146,2)	(-8,2)	(-32,8)	(1,2)	(-16,2)	(-109,2)	(-41,3)	(220,7)	(-3,1)	(-81,1)	(71,2)	
L1D -98>	(-18,4)	(96,8)	(-24,6)	(221,4)	(87,5)	(24,3)	(-110,9)	(7,13)	(33,5)	(64,3)	(42,2)	(-9,13)	(39,4)	(-1,47)	(-102,2)	(-32,13)	
L1D -97>	(185,3)	(64,23)	(88,51)	(105,7)	(-35,19)	(-21,1)	(28,4)	(40,1)	(42,4)	(-118,2)	(-7,4)	(-24,1)	(36,1)	(-1,53)	(-106,2)	(-197,1)	
L1D -96>	(184,4)	(207,5)	(21,2)	(0,18)	(9,2)	(64,31)	(-35,3)	(96,15)	(-90,2)	(-1,8)	(35,3)	(88,62)	(222,11)	(18,5)	(-7,6)	(221,3)	
L1D -95>	(66,1)	(75,0)	(-1,13)	(-3,1)	(64,85)	(9,4)	(4,1)	(-60,0)	(-102,0)	(-7,1)	(95,0)	(0,13)	(-248,0)	(-41,0)	(8,1)	(-5,0)	
L1D -94>	(88,3)	(-264,4)	(8,4)	(96,4)	(0,15)	(-281,1)	(64,18)	(-24,2)	(-72,4)	(320,3)	(94,2)	(9,5)	(-21,3)	(-110,6)	(43,2)	(39,2)	
L1D -93>	(64,64)	(6,52)	(100,3)	(0,3)	(-275,34)	(222,29)	(-1,5)	(85,3)	(-8,17)	(1,11)	(9,19)	(192,3)	(-111,4)	(101,4)	(128,6)	(18,2)	
L1D -92>	(-193,3)	(-1,54)	(223,14)	(64,76)	(1,5)	(-5,1)	(-41,11)	(4,24)	(0,10)	(23,3)	(76,7)	(253,7)	(-257,4)	(-175,3)	(-276,2)	(72,4)	
L1D -91>	(82,3)	(109,3)	(-6,1)	(-40,3)	(-2,5)	(187,2)	(-118,6)	(2,2)	(-117,9)	(64,63)	(-93,3)	(-1,2)	(9,10)	(34,2)	(-110,2)	(-109,7)	
L1D -90>	(81,3)	(108,4)	(97,3)	(80,30)	(223,19)	(224,32)	(1,1)	(8,4)	(186,2)	(0,11)	(-130,2)	(-191,2)	(-41,2)	(64,16)	(90,7)	(78,2)	
L1D -89>	(-28,2)	(9,5)	(207,1)	(-197,0)	(1,2)	(-15,2)	(0,0)	(64,5)	(89,0)	(80,81)	(-1,0)	(-3,0)	(-14,0)	(-18,0)	(251,0)	(-21,0)	
L1D -88>	(64,77)	(97,1)	(8,4)	(-7,1)	(0,5)	(1,1)	(208,1)	(96,3)	(207,1)	(104,1)	(13,1)	(3,1)	(72,1)	(80,0)	(34,0)	(35,0)	
L1D -87>	(8,17)	(-1,3)	(64,50)	(80,63)	(251,3)	(225,3)	(-27,1)	(-14,14)	(145,2)	(0,7)	(7,13)	(1,5)	(224,52)	(86,2)	(183,2)	(-79,2)	
L1D -86>	(64,110)	(-1,12)	(-18,11)	(8,65)	(4,10)	(269,4)	(-3,38)	(6,11)	(-279,6)	(90,1)	(225,23)	(-275,15)	(-102,2)	(0,19)	(82,11)	(182,3)	
L1D -85>	(-1,71)	(-18,4)	(88,6)	(6,6)	(308,1)	(0,12)	(64,20)	(-289,3)	(-16,15)	(-283,2)	(-3,7)	(-216,5)	(-224,4)	(-276,2)	(-48,2)	(72,3)	
L1D -84>	(5,10)	(-1,13)	(-3,3)	(226,15)	(197,9)	(72,17)	(64,29)	(28,1)	(212,7)	(225,25)	(-289,16)	(4,2)	(1,17)	(18,3)	(-24,2)	(13,5)	
L1D -83>	(0,24)	(9,9)	(82,3)	(64,29)	(4,4)	(-48,9)	(-1,6)	(196,10)	(132,1)	(31,3)	(72,55)	(69,2)	(-276,2)	(209,5)	(47,7)	(213,3)	
L1D -82>	(0,20)	(86,1)	(209,2)	(93,2)	(-24,7)	(-9,7)	(100,2)	(66,13)	(-277,2)	(210,18)	(64,11)	(72,58)	(77,5)	(8,2)	(1,3)	(9,2)	
L1D -81>	(-27,6)	(-2,2)	(86,1)	(-1,1)	(90,5)	(21,1)	(0,1)	(7,3)	(79,1)	(37,2)	(-36,1)	(72,115)	(25,1)	(-9,1)	(226,1)	(64,6)	
L1D -80>	(208,1)	(64,98)	(56,2)	(66,1)	(24,2)	(80,1)	(207,0)	(82,4)	(13,1)	(31,0)	(8,0)	(0,10)	(200,2)	(-7,0)	(60,1)	(87,0)	
L1D -79>	(79,2)	(-4,4)	(64,118)	(-7,1)	(-5,12)	(194,1)	(-2,2)	(-3,32)	(-36,5)	(0,2)	(16,3)	(-1,4)	(7,6)	(1,3)	(247,1)	(1,0)	
L1D -78>	(78,2)	(8,1)	(-24,6)	(-1,19)	(-3,78)	(6,13)	(3,1)	(-21,1)	(-5,1)	(7,3)	(-52,0)	(64,2)	(-47,0)	(-64,0)	(0,3)	(162,0)	
L1D -77>	(-1,126)	(86,1)	(-3,103)	(0,18)	(64,26)	(20,2)	(77,4)	(68,15)	(82,10)	(85,4)	(56,8)	(1,4)	(84,9)	(101,2)	(91,2)	(-228,5)	
L1D -76>	(84,1)	(1,3)	(-1,127)	(28,4)	(64,1)	(-3,0)	(52,0)	(204,2)	(78,0)	(62,0)	(2,1)	(128,0)	(0,2)	(73,0)	(76,0)	(-46,0)	
L1D -75>	(3,3)	(75,23)	(28,1)	(1,4)	(25,2)	(18,2)	(-1,112)	(64,29)	(22,26)	(84,11)	(-277,2)	(24,7)	(-72,2)	(0,5)	(9,4)	(68,2)	
L1D -74>	(0,9)	(-1,85)	(64,5)	(193,2)	(-56,4)	(-28,2)	(13,18)	(74,2)	(-36,2)	(2,2)	(59,1)	(209,1)	(1,3)	(82,5)	(50,1)	(73,1)	
L1D -73>	(64,10)	(0,0)	(192,0)	(33,0)	(-7,4)	(-1,96)	(73,1)	(12,0)	(13,0)	(-2,0)	(80,0)	(-24,0)	(9,0)	(24,7)	(67,0)	(-3,0)	
L1D -72>	(64,99)	(0,7)	(21,1)	(1,1)	(-3,2)	(-1,109)	(12,1)	(-8,2)	(75,2)	(67,1)	(34,4)	(63,1)	(72,45)	(84,3)	(6,4)	(250,3)	
L1D -71>	(64,67)	(-1,121)	(3,3)	(1,26)	(71,14)	(8,5)	(-8,3)	(0,2)	(194,1)	(24,6)	(13,1)	(133,1)	(7,2)	(-9,12)	(207,1)	(-36,3)	
L1D -70>	(132,5)	(0,1)	(-1,90)	(64,0)	(127,2)	(130,0)	(20,0)	(133,0)	(4,0)	(38,0)	(106,0)	(35,0)	(1,0)	(1,0)	(1,0)	(1,0)	
L1D -69>	(70,33)	(5,17)	(72,11)	(60,14)	(-55,5)	(-16,7)	(64,26)	(1,39)	(-2,3)	(35,7)	(25,3)	(69,27)	(-19,2)	(-8,2)	(0,26)	(147,2)	
L1D -68>	(179,10)	(60,12)	(22,16)	(160,28)	(-8,96)	(-18,7)	(64,26)	(-36,8)	(13,36)	(-9,1)	(53,10)	(24,23)	(-15,9)	(-17,3)	(-10,12)	(144,9)	
L1D -67>	(104,4)	(67,15)	(9,3)	(-248,1)	(49,63)	(0,113)	(6,3)	(24,3)	(-1,4)	(1,5)	(64,22)	(-15,4)	(-4,11)	(13,2)	(196,2)	(204,2)	
L1D -66>	(-248,6)	(199,7)	(57,12)	(64,31)	(47,1)	(73,49)	(-10,40)	(65,31)	(67,20)	(71,13)	(12,7)	(-259,5)	(13,10)	(-175,6)	(72,16)	(51,4)	
L1D -65>	(64,67)	(27,0)	(70,2)	(185,0)	(2,12)	(4,0)	(-7,7)	(72,1)	(0,2)	(-3,2)	(192,0)	(-13,0)	(56,0)	(1,4)	(-6,4)	(65,0)	
L1D -64>	(74,9)	(72,29)	(64,65)	(2,3)	(232,11)	(324,1)	(-64,16)	(1,3)	(68,7)	(312,1)	(73,12)	(15,1)	(248,2)	(256,2)	(67,2)	(66,7)	
L1D -63>	(-70,127)	(64,91)	(-1,4)	(-9,2)	(-16,2)	(60,3)	(62,9)	(-200,7)	(191,5)	(87,3)	(63,9)	(-8,4)	(72,2)	(1,71)	(-32,1)	(-264,5)	
L1D -62>	(-26,1)	(62,61)	(64,20)	(63,22)	(6,0)	(54,0)	(20,0)	(60,0)	(197,0)	(-64,0)	(-14,0)	(-1,0)	(222,1)	(-31,0)	(-70,64)	(0,1)	
L1D -61>	(-175,4)	(32,1)	(0,1)	(58,98)	(56,4)	(69,11)	(-179,0)	(14,0)	(61,0)	(-276,0)	(64,1)	(62,0)	(33,0)	(197,0)	(-303,0)	(12,4)	
L1D -60>	(60,10)	(64,94)	(255,3)	(-277,26)	(63,8)	(-70,124)	(62,38)	(-12,22)	(13,3)	(57,35)	(0,10)	(204,6)	(-6,1)	(-33,23)	(67,5)	(3,8)	
L1D -59>	(48,24)	(34,2)	(-276,15)	(64,24)	(-177,6)	(-33,2)	(-27,6)	(-181,3)	(-12,2)	(112,82)	(65,4)	(0,2)	(74,1)	(33,1)	(-10,37)	(-70,1)	
L1D -58>	(62,11)	(47,55)	(-35,83)	(58,57)	(-1,20)	(48,8)	(64,122)	(4,1)	(2,6)	(112,4)	(-71,71)	(55,3)	(1,13)	(56,13)	(-44,10)	(0,9)	
L1D -57>	(57,7)	(47,4)	(64,44)	(-5,2)	(1,2)	(34,1)	(46,7)	(-2,3)	(10,1)	(7,1)	(-72,78)	(42,1)	(55,29)	(48,2)	(2,1)	(44,3)	
L1D -56>	(45,4)	(64,66)	(-3,2)	(-6,11)	(-73,39)	(388,0)	(7,0)	(1,4)	(43,4)	(56,12)	(46,3)	(66,0)	(0,16)	(54,38)	(112,18)	(65,3)	
L1D -55>	(40,100)	(55,50)	(46,32)	(-14,34)	(45,17)	(-4,20)	(-74,75)	(-72,2)	(64,77)	(42,32)	(108,6)	(32,47)	(15,11)	(44,17)	(100,4)	(1,20)	
L1D -54>	(39,111)	(43,12)	(99,6)	(4,1)	(31,52)	(-9,14)	(48,10)	(55,4)	(0,7)	(-5,3)	(54,25)	(41,5)	(-75,48)	(64,18)	(107,5)	(52,5)	
L1D -53>	(56,1)	(-6,2)	(53,6)	(20,1)	(51,10)	(21,2)	(135,1)	(0,1)	(1,2)	(42,23)	(-25,0)	(-33,1)	(45,3)	(64,5)	(-76,95)	(166,6)	
L1D -52>	(64,58)	(50,31)	(61,6)	(-7,78)	(-10,30)	(1,2)	(41,42)	(-4,7)	(-9,20)	(60,1)	(-68,1)	(-27,4)	(51,11)	(-5,1)	(12,2)	(0,5)	
L1D -51>	(-41,6)	(64,4)	(-34,8)	(43,1)	(42,3)	(0,11)	(49,36)	(53,11)	(39,23)	(-8,93)	(-1,80)	(36,26)	(40,23)	(11,4)	(-27,6)	(28,8)	
L1D -50>	(64,68)	(-9,93)	(-83,1)	(7,63)	(128,11)	(48,13)	(0,11)	(31,36)	(49,14)	(38,5)	(103,2)	(39,27)	(46,2)	(35,111)	(27,36)	(95,4)	
L1D -49>	(39,1)	(-296,1)	(162,0)	(64,4)	(52,3)	(14,0)	(30,4)	(4,0)	(153,0)	(49,0)	(1,1)	(2,3)	(47,8)	(-10,84)	(50,0)	(0,2)	
L1D -48>	(64,74)	(2,6)	(62,2)	(-1,8)	(0,37)	(-37,3)	(58,4)	(112,19)	(56,2)	(130,2)	(39,6)	(1,11)	(380,10)	(53,27)	(-32,2)	(16,1)	
L1D -47>	(36,6)	(34,38)	(10,1)	(24,2)	(35,6)	(0,12)	(33,5)	(1,118)	(11,8)	(55,25)	(57,20)	(2,31)	(47,15)	(3,1)	(58,12)	(64,15)	
L1D -46>	(1,29)	(46,20)	(-13,109)	(0,28)	(-1,18)	(39,40)	(31,6)	(-33,22)	(27,22)	(56,44)	(54,90)	(2,34)	(42,1)	(57,32)	(44,35)	(35,4)	
L1D -45>	(-10,5)	(26,39)	(-6,10)	(-1,3)	(64,5)	(44,5)	(-292,4)	(34,14)	(1,98)	(55,18)	(7,3)	(2,8)	(22,10)	(-14,16)	(46,1)	(30,1)	
L1D -44>	(42,3)	(-44,3)	(25,9)	(33,4)	(-15,104)	(135,1)	(-5,1)	(64,5)	(145,1)	(29,1)	(44,1)	(53,3)	(5,7)	(-3,1)	(1,56)	(-35,8)	
L1D -43>	(43,3)	(5,2)	(33,4)	(1,6)	(64,5)	(2,14)	(-10,39)	(23,26)	(53,3)	(30,8)	(-16,116)	(35,5)	(41,40)	(0,8)	(39,1)	(-9,12)	
L1D -42>	(41,9)	(42,4)	(23,25)	(64,28)	(3,9)	(24,32)	(-2,1)	(52,11)	(31,17)	(34,8)	(56,2)	(2,71)	(-1,5)	(-17,7)	(1,50)	(50,27)	
L1D -41>	(8,0)	(2,4)	(1,69)	(-1,15)	(-18,4)	(-9,19)	(0,9)	(4,3)	(64,38)	(30,3)	(40,56)	(49,2)	(32,1)	(22,1)	(52,21)	(-10,5)	
L1D -40>	(43,1)	(29,17)	(0,38)	(50,3)	(112,49)	(-9,16)	(64,57)	(-5,27)	(-4,3)	(1,86)	(48,9)	(130,3)	(52,120)	(26,4)	(36,3)	(39,21)	
L1D -39>	(46,8)	(-78,5)	(49,18)	(1,38)	(2,9)	(6,10)	(60,1)	(64,16)	(-20,9)	(-8,31)	(-32,5)	(47,8)	(42,18)	(35,15)	(34,94)	(38,32)	
L1D -38>	(0,104)	(38,56)	(40,1)	(-21,79)	(73,5)	(28,23)	(37,27)	(34,113)	(36,10)	(-203,13)	(55,58)	(1,100)	(-41,33)	(27,46)	(64,66)	(15,76)	
L1D -37>	(64,19)	(27,20)	(2,1)	(15,26)	(1,85)	(26,28)	(36,102)	(-8,7)	(-22,70)	(34,32)	(-264,4)	(0,7)	(-1,56)	(23,14)	(35,15)	(47,2)	
L1D -36>	(0,7)	(36,7)	(33,1)	(-39,2)	(1,34)	(14,3)	(44,11)	(46,3)	(-46,2)	(10,11)	(-23,120)	(-193,4)	(47,10)	(9,3)	(-4,3)	(38,2)	
L1D -35>	(64,57)	(34,26)	(15,4)	(24,19)	(-264,5)	(1,6)	(12,8)	(22,3)	(21,111)	(13,4)	(59,1)	(19,5)	(17,2)	(10,15)	(-5,121)	(27,1)	
L1D -34>	(20,1)	(72,8)	(11,11)	(10,12)	(1,6)	(42,7)	(64,8)	(-25,114)	(12,10)	(23,7)	(34,1)	(32,45)	(-41,8)	(44,2)	(18,8)	(14,1)	
L1D -33>	(1,92)	(31,12)	(39,43)	(55,43)	(64,68)	(11,8)	(5,1)	(18,10)	(41,18)	(32,47)	(10,40)	(44,14)	(15,14)	(0,19)	(-26,48)	(22,43)	
L1D -32>	(0,111)	(22,4)	(292,57)	(112,21)	(7,33)	(1,15)	(31,13)	(40,4)	(-342,1)	(33,27)	(9,6)	(-27,88)	(10,11)	(4,15)	(64,6)	(30,9)	
L1D -31>	(-28,36)	(1,31)	(59,2)	(64,5)	(0,5)	(-1,10)	(7,16)	(27,3)	(15,2)	(2,1)	(30,45)	(-70,7)	(-8,3)	(20,5)	(4,8)	(32,86)	
L1D -30>	(-29,35)	(2,1)	(1,110)	(10,42)	(0,12)	(59,11)	(14,12)	(30,25)	(-5,15)	(20,15)	(-70,61)	(19,5)	(28,21)	(35,4)	(64,5)	(37,13)	
L1D -29>	(27,13)	(29,6)	(1,70)	(9,7)	(3,1)	(31,6)	(64,4)	(0,15)	(-30,69)	(6,10)	(19,4)	(-70,26)	(-1,14)	(15,9)	(18,2)	(-231,8)	
L1D -28>	(1,116)	(28,11)	(7,22)	(-70,62)	(15,1)	(10,2)	(33,12)	(-2,25)	(59,6)	(26,3)	(18,14)	(0,13)	(-31,26)	(13,4)	(12,6)	(36,10)	
L1D -27>	(1,21)	(-70,39)	(12,30)	(4,83)	(26,11)	(13,7)	(64,15)	(59,16)	(34,6)	(7,8)	(40,10)	(0,17)	(10,43)	(5,87)	(2,1)	(16,3)	
L1D -26>	(23,11)	(1,112)	(64,5)	(-8,2)	(26,15)	(59,2)	(15,4)	(-181,4)	(10,3)	(0,10)	(8,5)	(12,1)	(14,1)	(-20,3)	(2,8)	(22,8)	
L1D -25>	(6,20)	(64,4)	(-34,1)	(22,98)	(59,3)	(1,10)	(13,11)	(5,15)	(24,10)	(26,8)	(-70,12)	(12,3)	(38,2)	(-19,10)	(32,6)	(0,5)	
L1D -24>	(11,2)	(-4,1)	(5,1)	(4,13)	(12,105)	(1,8)	(13,33)	(24,10)	(-5,1)	(-17,4)	(10,1)	(-26,1)	(25,8)	(35,3)	(32,4)	(448,1)	
L1D -23>	(14,1)	(1,108)	(10,10)	(-163,7)	(26,13)	(36,7)	(12,21)	(30,13)	(59,15)	(-17,7)	(-70,47)	(8,31)	(27,9)	(23,4)	(-162,5)	(0,3)	
L1D -22>	(1,99)	(-70,8)	(23,35)	(6,20)	(26,87)	(30,17)	(-162,14)	(25,21)	(59,6)	(8,19)	(32,42)	(33,10)	(0,6)	(-25,1)	(-1,8)	(22,9)	
L1D -21>	(1,22)	(25,9)	(21,66)	(-162,2)	(2,14)	(-10,6)	(22,35)	(-163,7)	(0,4)	(15,3)	(3,4)	(13,43)	(5,11)	(-18,18)	(6,13)	(-15,4)	
L1D -20>	(2,6)	(1,59)	(-162,7)	(-163,5)	(4,4)	(20,13)	(28,5)	(8,9)	(-21,1)	(14,0)	(-3,1)	(-5,1)	(24,2)	(15,65)	(19,18)	(-22,0)	
L1D -19>	(18,22)	(16,9)	(1,72)	(23,21)	(2,56)	(19,18)	(64,8)	(21,45)	(9,1)	(0,14)	(5,50)	(6,6)	(156,3)	(-6,42)	(163,1)	(4,3)	
L1D -18>	(6,17)	(22,10)	(15,5)	(-2,5)	(-31,8)	(-7,3)	(12,14)	(20,5)	(-6,112)	(18,23)	(17,6)	(157,5)	(10,14)	(0,7)	(-8,20)	(31,1)	
L1D -17>	(64,7)	(4,100)	(19,33)	(-8,15)	(17,88)	(7,77)	(-47,16)	(1,24)	(6,55)	(18,83)	(0,42)	(28,84)	(-9,1)	(150,7)	(-1,103)	(9,45)	
L1D -16>	(1,12)	(5,58)	(-294,1)	(17,2)	(16,19)	(28,2)	(-70,2)	(-5,48)	(0,16)	(10,69)	(6,10)	(20,13)	(-8,22)	(8,25)	(-2,12)	(144,11)	
L1D -15>	(11,14)	(-10,22)	(1,41)	(0,89)	(6,1)	(-2,15)	(-70,91)	(18,6)	(22,39)	(4,6)	(-1,6)	(-6,56)	(15,43)	(-18,18)	(23,25)	(9,4)	
L1D -14>	(26,13)	(-1,9)	(14,79)	(-250,9)	(6,11)	(1,37)	(0,87)	(13,19)	(-139,6)	(18,6)	(15,13)	(-20,8)	(-70,1)	(22,20)	(10,22)	(9,10)	
L1D -13>	(13,48)	(-1,26)	(0,61)	(-2,21)	(1,39)	(25,1)	(2,16)	(-10,36)	(-70,35)	(14,17)	(-13,19)	(7,28)	(5,69)	(11,25)	(6,45)	(59,7)	
L1D -12>	(-2,15)	(-38,1)	(2,7)	(5,2)	(1,65)	(-32,15)	(0,13)	(26,9)	(6,6)	(4,1)	(-13,6)	(-8,4)	(-12,11)	(14,20)	(13,4)	(7,4)	
L1D -11>	(5,25)	(2,64)	(3,6)	(19,0)	(10,27)	(-13,27)	(14,13)	(11,20)	(6,6)	(-12,8)	(-7,1)	(-40,38)	(0,21)	(-2,21)	(4,7)	(1,46)	
L1D -10>	(8,40)	(11,13)	(26,12)	(-70,77)	(1,38)	(9,73)	(10,38)	(-1,31)	(2,104)	(-122,2)	(20,14)	(0,28)	(-48,6)	(4,39)	(7,35)	(-3,5)	
L1D -9>	(6,1)	(12,8)	(13,29)	(0,14)	(-10,15)	(1,23)	(9,15)	(-80,3)	(4,38)	(7,37)	(8,23)	(18,21)	(10,113)	(2,28)	(14,5)	(-55,2)	
L1D -8>	(1,90)	(-18,1)	(-4,5)	(0,44)	(5,37)	(8,16)	(6,25)	(2,15)	(7,25)	(14,31)	(9,11)	(-70,5)	(10,28)	(11,13)	(-6,12)	(19,35)	
L1D -7>	(-40,4)	(10,11)	(-7,29)	(-39,10)	(-4,4)	(8,4)	(5,8)	(2,5)	(-1,2)	(6,15)	(-70,5)	(1,24)	(-33,1)	(14,8)	(7,91)	(0,34)	
L1D -6>	(2,116)	(-25,1)	(1,63)	(-3,9)	(12,15)	(-27,15)	(6,18)	(-7,11)	(10,2)	(-1,15)	(-4,9)	(4,13)	(8,6)	(7,41)	(0,15)	(3,15)	
L1D -5>	(1,85)	(26,1)	(25,23)	(7,6)	(5,53)	(0,14)	(6,19)	(-40,19)	(-2,74)	(2,8)	(-10,22)	(-26,15)	(4,23)	(21,18)	(12,8)	(8,28)	
L1D -4>	(-5,81)	(5,19)	(-22,34)	(7,16)	(1,46)	(6,17)	(-8,1)	(4,115)	(3,41)	(-10,32)	(-11,43)	(8,25)	(-2,55)	(0,78)	(-21,23)	(2,15)	
L1D -3>	(5,18)	(3,43)	(-24,10)	(-12,11)	(0,13)	(-64,9)	(9,5)	(-1,1)	(4,74)	(24,8)	(2,20)	(6,8)	(1,19)	(7,15)	(10,16)	(-5,8)	
L1D -2>	(-2,7)	(5,14)	(1,64)	(0,31)	(4,75)	(7,32)	(2,101)	(-4,1)	(10,16)	(-3,6)	(8,13)	(-6,71)	(3,18)	(6,23)	(11,4)	(-10,11)	
L1D -1>	(1,72)	(2,45)	(0,69)	(-1,9)	(130,111)	(17,1)	(-7,12)	(6,2)	(10,10)	(-39,2)	(18,10)	(74,2)	(4,4)	(-8,3)	(-6,12)	(86,3)	
L1D 0>	(1,38)	(-72,1)	(0,115)	(-3,3)	(24,1)	(120,1)	(-1,8)	(2,13)	(4,6)	(-2,3)	(-104,2)	(-103,4)	(3,5)	(-105,1)	(7,1)	(112,2)	
L1D 1>	(-164,1)	(27,1)	(398,1)	(3,9)	(1,118)	(6,2)	(-2,2)	(-8,1)	(0,9)	(10,1)	(8,1)	(-133,1)	(-1,8)	(-6,1)	(2,6)	(-12,1)	
L1D 2>	(1,98)	(-2,69)	(-4,3)	(-8,12)	(-7,2)	(2,25)	(0,17)	(6,20)	(3,6)	(8,12)	(18,42)	(20,1)	(26,4)	(-3,27)	(-1,20)	(10,10)	
L1D 3>	(-3,88)	(0,22)	(4,70)	(-4,14)	(-1,16)	(-2,14)	(7,6)	(6,38)	(1,58)	(-5,13)	(23,20)	(2,22)	(3,13)	(-97,1)	(-9,19)	(5,26)	
L1D 4>	(-5,62)	(3,14)	(9,18)	(4,9)	(15,14)	(2,35)	(-4,81)	(-3,17)	(46,1)	(17,14)	(-15,40)	(1,32)	(-10,97)	(-7,37)	(0,12)	(7,9)	
L1D 5>	(0,28)	(15,3)	(5,34)	(-1,32)	(18,18)	(-13,7)	(1,21)	(-5,80)	(-3,10)	(-10,14)	(4,3)	(-8,27)	(2,13)	(8,1)	(12,8)	(-4,38)	
L1D 6>	(-4,33)	(2,63)	(-2,23)	(-13,31)	(-6,35)	(-8,39)	(-12,7)	(8,1)	(6,47)	(-1,71)	(1,81)	(0,24)	(-31,46)	(-5,19)	(-3,19)	(-9,54)	
L1D 7>	(-4,4)	(-5,99)	(-8,2)	(-46,3)	(1,8)	(-7,56)	(8,4)	(-15,10)	(2,13)	(-47,4)	(-19,7)	(0,5)	(6,12)	(-1,9)	(148,1)	(11,5)	
L1D 8>	(18,25)	(-5,24)	(-2,24)	(-27,32)	(-23,11)	(8,31)	(-16,16)	(2,27)	(-14,1)	(-13,31)	(-11,30)	(-1,6)	(-4,23)	(9,10)	(-15,34)	(-8,65)	
L1D 9>	(-15,26)	(-9,74)	(13,17)	(0,101)	(-10,21)	(-16,43)	(-24,14)	(-7,52)	(-52,6)	(-8,100)	(-5,8)	(5,28)	(-12,1)	(1,29)	(-4,6)	(-20,4)	
L1D 10>	(22,52)	(12,36)	(-8,57)	(-7,22)	(1,60)	(-1,92)	(0,36)	(-35,1)	(-10,51)	(-9,41)	(-3,57)	(-62,13)	(6,118)	(-4,15)	(4,26)	(-2,57)	
L1D 11>	(-15,15)	(-5,77)	(0,32)	(-10,19)	(15,1)	(-3,14)	(-4,20)	(3,37)	(-8,57)	(4,6)	(-133,36)	(5,8)	(-1,16)	(-6,8)	(-11,95)	(-9,76)	
L1D 12>	(-8,13)	(-18,10)	(6,4)	(-3,7)	(-26,1)	(-2,101)	(-15,14)	(-11,2)	(14,6)	(-4,3)	(-17,3)	(-7,22)	(5,6)	(-9,7)	(-12,2)	(13,7)	
L1D 13>	(0,3)	(-13,30)	(8,20)	(-31,1)	(-8,30)	(-2,101)	(-25,7)	(-6,25)	(1,10)	(-20,65)	(-37,11)	(-12,13)	(-1,4)	(13,8)	(-4,79)	(-19,4)	
L1D 14>	(-13,24)	(-14,63)	(-8,36)	(-10,6)	(-17,21)	(-25,36)	(8,15)	(1,12)	(-11,94)	(7,42)	(-2,10)	(0,25)	(-4,14)	(85,1)	(-5,2)	(-3,46)	
L1D 15>	(6,19)	(-17,8)	(-24,47)	(-11,9)	(1,12)	(-4,23)	(-19,20)	(0,12)	(-29,1)	(-27,2)	(-16,13)	(-8,4)	(-25,15)	(7,52)	(-15,43)	(-26,102)	
L1D 16>	(-16,65)	(-182,43)	(-4,8)	(-6,13)	(-20,15)	(112,43)	(-9,2)	(-8,22)	(0,19)	(-17,22)	(-7,66)	(-2,64)	(1,14)	(6,22)	(128,47)	(-25,22)	
L1D 17>	(-23,12)	(-28,14)	(-22,3)	(-19,8)	(-29,8)	(-15,10)	(-10,8)	(-12,5)	(0,10)	(9,1)	(-13,4)	(113,1)	(111,1)	(1,77)	(-21,8)	(-8,2)	
L1D 18>	(-12,19)	(1,115)	(-30,29)	(-27,1)	(-18,19)	(-51,18)	(-22,5)	(0,17)	(-24,26)	(-4,29)	(-8,13)	(-50,23)	(-7,6)	(-13,12)	(-42,21)	(15,31)	
L1D 19>	(-37,3)	(-23,6)	(-5,22)	(-26,9)	(-3,44)	(-17,9)	(-24,1)	(-31,19)	(-11,23)	(8,26)	(-44,10)	(-20,49)	(-19,8)	(-4,25)	(1,4)	(-25,95)	
L1D 20>	(0,9)	(-9,10)	(-24,11)	(-16,18)	(-1,1)	(-10,85)	(6,53)	(-32,20)	(-11,9)	(-19,34)	(-50,24)	(-25,30)	(-3,17)	(-21,67)	(-20,38)	(-51,27)	
L1D 21>	(-23,83)	(6,60)	(-16,57)	(-61,77)	(-5,20)	(-20,9)	(-36,8)	(2,24)	(-21,9)	(-174,1)	(-8,43)	(-1,5)	(-17,8)	(-15,28)	(-27,10)	(8,115)	
L1D 22>	(-18,1)	(-23,4)	(-1,3)	(-24,88)	(8,30)	(0,6)	(4,1)	(-19,4)	(-11,1)	(-8,19)	(134,1)	(2,4)	(-32,15)	(-12,8)	(1,4)	(-17,6)	
L1D 23>	(-26,11)	(-1,17)	(2,4)	(3,30)	(1,72)	(0,6)	(-4,5)	(-2,1)	(-24,24)	(-13,14)	(-35,3)	(-11,21)	(-3,16)	(-8,33)	(-9,6)	(-22,8)	
L1D 24>	(-11,75)	(-12,56)	(-27,11)	(-19,19)	(-20,12)	(-57,37)	(-56,1)	(-43,8)	(-29,21)	(1,111)	(8,19)	(0,44)	(-24,74)	(-52,22)	(-8,90)	(-46,16)	
L1D 25>	(-133,39)	(-3,65)	(-12,19)	(-19,78)	(-1,37)	(1,5)	(-25,56)	(-39,1)	(57,11)	(-4,12)	(2,80)	(-28,16)	(0,17)	(56,67)	(-26,24)	(-35,44)	
L1D 26>	(-3,45)	(0,18)	(1,28)	(3,4)	(-4,20)	(128,1)	(2,16)	(-7,40)	(-25,127)	(-8,1)	(8,26)	(-12,11)	(-2,6)	(-1,9)	(-15,7)	(-26,14)	
L1D 27>	(-4,4)	(-133,1)	(28,1)	(-16,111)	(-3,8)	(-27,3)	(-28,7)	(-1,4)	(0,10)	(-9,1)	(-12,1)	(-26,1)	(8,3)	(-8,1)	(-2,3)	(-5,3)	
L1D 28>	(-7,101)	(0,24)	(-6,4)	(-27,10)	(-11,10)	(-4,16)	(-1,9)	(-12,12)	(8,7)	(-30,1)	(-28,41)	(-14,4)	(-3,5)	(1,30)	(-17,3)	(6,6)	
L1D 29>	(22,2)	(5,9)	(0,3)	(1,2)	(-2,3)	(-7,2)	(-10,4)	(-29,10)	(-6,1)	(-11,6)	(6,105)	(-3,13)	(2,2)	(-18,4)	(-8,7)	(-12,19)	
L1D 30>	(-10,10)	(-22,14)	(13,19)	(-9,118)	(-11,24)	(0,7)	(16,1)	(-298,14)	(-8,16)	(27,2)	(29,9)	(-15,19)	(-18,10)	(5,8)	(-21,3)	(-12,2)	
L1D 31>	(-9,20)	(-4,88)	(-22,12)	(-28,50)	(-7,8)	(-18,31)	(-19,3)	(-1,58)	(11,1)	(8,126)	(0,12)	(-8,36)	(-29,2)	(-64,5)	(-13,13)	(-11,16)	
L1D 32>	(-23,15)	(-11,1)	(-18,51)	(-22,8)	(-8,30)	(-32,28)	(1,21)	(8,103)	(-10,3)	(-1,14)	(-2,79)	(14,3)	(-24,12)	(-9,13)	(-21,4)	(0,12)	
L1D 33>	(-3,20)	(-8,74)	(23,11)	(2,6)	(0,35)	(-1,22)	(8,53)	(-6,6)	(-23,15)	(-15,28)	(10,14)	(-33,59)	(-4,16)	(175,5)	(-22,10)	(22,1)	
L1D 34>	(-32,127)	(-21,2)	(-10,62)	(-34,18)	(-1,17)	(-18,4)	(-23,39)	(-11,4)	(1,51)	(-25,11)	(-8,4)	(-12,22)	(-24,28)	(-185,4)	(-9,26)	(-22,24)	
L1D 35>	(0,4)	(3,6)	(-12,40)	(2,6)	(-23,1)	(1,12)	(-35,8)	(15,8)	(-8,92)	(-24,8)	(-16,23)	(-1,8)	(8,11)	(-3,5)	(-4,5)	(-10,7)	
L1D 36>	(-8,122)	(120,1)	(-1,17)	(-24,2)	(-36,17)	(-231,1)	(-6,44)	(-12,6)	(-7,2)	(-3,4)	(-15,3)	(-2,6)	(15,3)	(8,32)	(-10,2)	(-34,2)	
L1D 37>	(-13,29)	(-9,28)	(-8,84)	(-4,25)	(-6,22)	(-7,45)	(-14,2)	(0,25)	(-24,10)	(8,69)	(1,47)	(-37,19)	(-23,12)	(-1,13)	(-18,43)	(-12,17)	
L1D 38>	(-5,5)	(-38,22)	(2,18)	(1,54)	(-1,72)	(-8,96)	(-24,32)	(-7,10)	(0,15)	(-4,9)	(-18,29)	(8,22)	(-72,1)	(-64,9)	(-10,30)	(-11,6)	
L1D 39>	(-8,89)	(15,1)	(0,1)	(-9,3)	(-10,15)	(-49,3)	(18,12)	(-4,8)	(-3,1)	(-18,3)	(100,1)	(-7,2)	(8,4)	(-12,2)	(-1,20)	(-14,10)	
L1D 40>	(-10,7)	(-8,111)	(-40,23)	(1,9)	(-15,3)	(-37,1)	(-45,5)	(12,34)	(-44,7)	(0,7)	(8,6)	(-1,45)	(-9,22)	(-6,36)	(-4,2)	(130,6)	
L1D 41>	(-3,11)	(-11,27)	(0,113)	(-1,5)	(-7,2)	(16,1)	(-74,1)	(-8,38)	(-23,10)	(-18,75)	(-10,14)	(-2,1)	(8,52)	(-24,14)	(-41,6)	(-4,14)	
L1D 42>	(6,14)	(2,3)	(-8,65)	(-10,63)	(-4,1)	(9,3)	(-7,20)	(-14,29)	(-24,32)	(-11,24)	(-1,13)	(-133,3)	(0,73)	(-16,70)	(-12,39)	(8,65)	
L1D 43>	(-10,80)	(-7,60)	(8,56)	(5,6)	(-15,8)	(-11,24)	(2,4)	(-4,16)	(-3,1)	(1,21)	(-43,33)	(161,21)	(-6,8)	(-5,7)	(-1,11)	(-17,4)	
L1D 44>	(0,7)	(-4,6)	(8,11)	(-6,28)	(-1,16)	(-12,8)	(-23,23)	(4,9)	(-18,8)	(1,14)	(-44,17)	(-8,117)	(-40,4)	(-9,7)	(6,1)	(-10,19)	
L1D 45>	(-5,61)	(-27,16)	(-6,19)	(-10,9)	(8,21)	(-8,11)	(-14,3)	(-15,4)	(-3,8)	(1,64)	(-12,5)	(-13,2)	(-1,19)	(4,12)	(-4,5)	(0,8)	
L1D 46>	(1,72)	(-46,52)	(-69,6)	(-15,20)	(-7,85)	(-14,69)	(-12,24)	(-2,9)	(-68,23)	(8,90)	(-11,11)	(0,11)	(-25,19)	(-18,10)	(5,1)	(-51,2)	
L1D 47>	(-7,13)	(22,1)	(0,11)	(8,36)	(1,15)	(-15,4)	(-24,10)	(-11,11)	(-12,10)	(-18,93)	(-2,29)	(-1,25)	(64,5)	(-8,31)	(-3,12)	(-4,11)	
L1D 48>	(-2,28)	(-5,124)	(-6,63)	(10,9)	(8,87)	(-24,15)	(-36,11)	(-14,20)	(-4,31)	(64,64)	(-8,25)	(0,34)	(-15,28)	(-48,59)	(1,8)	(5,1)	
L1D 49>	(-23,5)	(-10,5)	(0,18)	(-64,109)	(-9,7)	(-1,13)	(-49,30)	(-12,41)	(-5,2)	(-8,107)	(1,40)	(-2,5)	(-32,5)	(64,72)	(-7,17)	(132,3)	
L1D 50>	(-1,8)	(-2,10)	(-17,1)	(8,4)	(-12,60)	(-7,5)	(-8,97)	(-18,11)	(1,10)	(9,19)	(-22,2)	(-64,5)	(-4,6)	(-46,2)	(-11,2)	(-50,7)	
L1D 51>	(-1,21)	(-19,22)	(9,12)	(-11,40)	(7,11)	(-2,20)	(-12,21)	(-8,41)	(-23,13)	(0,6)	(-24,10)	(-4,1)	(-18,55)	(-9,9)	(-52,7)	(-64,8)	
L1D 52>	(8,30)	(-128,2)	(-8,7)	(24,2)	(-1,1)	(-12,126)	(-18,0)	(-52,33)	(76,1)	(-25,1)	(-22,10)	(-20,0)	(-59,0)	(-46,0)	(-44,2)	(-4,0)	
L1D 53>	(-12,6)	(-1,8)	(2,5)	(-53,88)	(1,63)	(-11,5)	(-3,1)	(-14,6)	(7,66)	(-64,30)	(-8,37)	(16,11)	(-5,105)	(0,19)	(-7,10)	(-22,22)	
L1D 54>	(1,2)	(-22,4)	(-2,2)	(-18,18)	(-54,7)	(-23,44)	(-20,3)	(-24,1)	(-1,12)	(-7,3)	(-3,2)	(-64,0)	(-15,8)	(-12,1)	(-16,1)	(-8,68)	
L1D 55>	(1,19)	(5,5)	(-2,3)	(16,30)	(-55,12)	(-8,106)	(-9,1)	(144,3)	(0,24)	(-23,33)	(2,5)	(-24,4)	(-7,6)	(-18,25)	(-1,18)	(-13,5)	
L1D 56>	(56,55)	(-25,3)	(0,12)	(64,60)	(16,11)	(52,7)	(-8,8)	(-64,42)	(-294,8)	(61,28)	(1,9)	(-398,30)	(-17,9)	(-3,3)	(53,33)	(-56,70)	
L1D 57>	(-57,97)	(1,48)	(-403,7)	(-1,40)	(52,12)	(-24,15)	(7,5)	(-5,6)	(-34,1)	(-9,8)	(-64,8)	(0,13)	(-399,5)	(-8,121)	(-18,76)	(60,20)	
L1D 58>	(-2,23)	(-16,13)	(-10,4)	(-95,2)	(-58,7)	(-25,1)	(-420,1)	(-11,3)	(0,8)	(-21,113)	(-4,22)	(-8,3)	(-69,2)	(-3,1)	(-5,7)	(113,1)	
L1D 59>	(-50,18)	(-58,7)	(-27,1)	(-44,25)	(0,72)	(-53,18)	(-55,8)	(-40,14)	(-17,6)	(-46,41)	(-43,25)	(-52,24)	(-32,37)	(-37,24)	(-29,25)	(-41,11)	
L1D 60>	(8,38)	(9,14)	(1,33)	(-10,94)	(-402,28)	(131,17)	(-403,57)	(57,22)	(-9,27)	(-137,23)	(-26,1)	(-1,14)	(16,31)	(-63,6)	(-58,12)	(-4,49)	
L1D 61>	(-64,10)	(-5,6)	(-1,11)	(-403,89)	(-153,18)	(-306,10)	(-7,7)	(-286,20)	(-3,15)	(-311,5)	(-69,4)	(-4,7)	(-59,1)	(-290,3)	(4,6)	(0,22)	
L1D 62>	(0,29)	(1,91)	(-5,2)	(14,1)	(-10,1)	(-9,3)	(-3,1)	(-7,0)	(-28,0)	(-132,5)	(24,1)	(-89,1)	(-1,2)	(-90,0)	(-91,1)	(8,0)	
L1D 63>	(-3,4)	(1,11)	(6,6)	(138,2)	(-133,101)	(-95,2)	(24,1)	(12,1)	(-81,4)	(-7,4)	(-194,3)	(-1,11)	(13,1)	(-64,7)	(-6,5)	(0,16)	
L1D 64>	(-67,1)	(-24,15)	(-9,3)	(0,12)	(-176,71)	(112,16)	(-56,49)	(-7,4)	(19,5)	(-64,102)	(-8,4)	(-16,18)	(-240,4)	(-72,19)	(-33,2)	(-65,21)	
L1D 65>	(-7,36)	(64,115)	(-9,9)	(115,4)	(0,24)	(-55,1)	(-64,18)	(61,2)	(1,2)	(-2,2)	(-89,4)	(-81,5)	(-87,3)	(-1,5)	(-49,3)	(-139,2)	
L1D 66>	(-7,97)	(-9,16)	(64,64)	(24,3)	(-39,4)	(16,7)	(-81,10)	(-76,3)	(-12,6)	(-69,2)	(-64,71)	(-75,6)	(-8,4)	(-35,5)	(4,17)	(0,4)	
L1D 67>	(-9,56)	(-7,108)	(64,22)	(0,21)	(-16,5)	(1,13)	(-8,30)	(-1,1)	(-3,39)	(4,47)	(-4,8)	(-64,12)	(-75,5)	(-81,14)	(-51,8)	(255,10)	
L1D 68>	(16,26)	(-9,46)	(-18,5)	(-4,23)	(1,28)	(-64,86)	(9,27)	(5,64)	(-1,1)	(-255,6)	(7,16)	(4,19)	(-75,18)	(-40,4)	(0,19)	(-76,29)	
L1D 69>	(-6,38)	(-9,23)	(-5,19)	(-18,15)	(-7,8)	(4,33)	(0,15)	(-3,20)	(-4,18)	(3,77)	(-16,8)	(-64,9)	(-39,1)	(-17,2)	(-154,4)	(-143,2)	
L1D 70>	(-36,11)	(-6,34)	(-35,21)	(0,11)	(1,4)	(-7,9)	(8,8)	(-1,5)	(-59,8)	(62,9)	(-10,1)	(-16,2)	(-37,3)	(-5,7)	(-52,3)	(-70,4)	
L1D 71>	(-7,8)	(-4,7)	(8,11)	(4,5)	(0,7)	(-16,14)	(-64,9)	(-57,3)	(20,7)	(1,28)	(-24,6)	(-95,26)	(-155,4)	(-96,4)	(7,67)	(-71,6)	
L1D 72>	(-38,4)	(0,8)	(-69,3)	(-6,4)	(-5,5)	(-95,18)	(-8,75)	(-9,4)	(-75,3)	(178,8)	(4,9)	(192,7)	(-64,120)	(-72,24)	(-7,3)	(-59,1)	
L1D 73>	(-1,6)	(-64,7)	(0,9)	(-89,104)	(-90,7)	(-8,2)	(-7,47)	(-95,5)	(-73,1)	(1,3)	(-9,46)	(20,3)	(-4,2)	(4,1)	(-87,1)	(-81,6)	
L1D 74>	(-82,15)	(-84,14)	(-2,1)	(-11,11)	(-10,9)	(20,5)	(-9,54)	(4,13)	(-7,15)	(-83,37)	(-8,19)	(-65,7)	(0,26)	(54,17)	(1,5)	(-81,89)	
L1D 75>	(-75,6)	(-72,1)	(-9,42)	(-3,36)	(-8,7)	(-64,22)	(7,9)	(-81,89)	(8,5)	(-65,7)	(-70,3)	(-2,4)	(0,3)	(-4,4)	(4,9)	(3,5)	
L1D 76>	(0,48)	(12,8)	(5,12)	(-64,124)	(52,106)	(16,2)	(-4,17)	(255,3)	(1,34)	(-9,10)	(-60,22)	(-76,17)	(-81,11)	(4,12)	(20,3)	(-75,10)	
L1D 77>	(2,12)	(-14,6)	(-9,18)	(-18,3)	(0,20)	(52,1)	(1,7)	(-86,2)	(-2,2)	(51,44)	(3,4)	(-69,4)	(-81,6)	(-64,4)	(-4,3)	(-75,2)	
L1D 78>	(-60,18)	(1,31)	(-9,32)	(-261,32)	(-68,9)	(-81,4)	(50,24)	(0,18)	(-1,3)	(21,7)	(255,3)	(-128,4)	(313,5)	(16,7)	(168,1)	(-189,3)	
L1D 79>	(0,30)	(-15,40)	(-37,10)	(-71,3)	(-62,4)	(49,4)	(1,16)	(16,9)	(-64,12)	(-24,6)	(-39,3)	(-262,10)	(-65,36)	(8,4)	(12,11)	(4,4)	
L1D 80>	(-73,5)	(-4,4)	(24,1)	(48,11)	(-88,4)	(-89,4)	(20,3)	(0,1)	(-64,8)	(64,1)	(-80,5)	(-181,1)	(-71,4)	(4,1)	(8,4)	(-16,93)	
L1D 81>	(28,1)	(-18,1)	(61,17)	(47,80)	(56,17)	(-195,1)	(52,2)	(-75,1)	(-64,3)	(1,2)	(0,6)	(60,2)	(53,3)	(4,1)	(20,1)	(-81,6)	
L1D 82>	(10,8)	(1,44)	(9,8)	(51,7)	(-64,30)	(52,7)	(-73,9)	(93,25)	(-4,20)	(3,4)	(46,14)	(-90,4)	(4,17)	(20,6)	(0,5)	(60,24)	
L1D 83>	(-4,34)	(-1,6)	(-88,4)	(0,56)	(21,6)	(20,5)	(1,23)	(-11,6)	(-64,9)	(113,2)	(-69,3)	(-345,7)	(-188,4)	(-20,4)	(8,8)	(-60,7)	
L1D 84>	(58,10)	(20,2)	(0,110)	(44,14)	(-9,8)	(-62,5)	(201,3)	(7,15)	(-7,8)	(3,2)	(-64,15)	(-2,2)	(129,3)	(4,10)	(-8,15)	(-71,4)	
L1D 85>	(57,40)	(0,23)	(113,17)	(-164,1)	(-64,15)	(-24,2)	(2,4)	(-10,2)	(-53,3)	(-4,5)	(8,4)	(1,22)	(-37,3)	(-32,3)	(-3,2)	(-42,2)	
L1D 86>	(-44,3)	(-85,9)	(42,86)	(-4,1)	(-5,2)	(1,14)	(0,4)	(-64,14)	(-188,1)	(21,1)	(-60,1)	(89,1)	(-12,1)	(-20,1)	(-38,3)	(-6,1)	
[...]
L1D 474>	(-107,2)	(-117,1)	(-108,1)	(1,0)	(1,0)	(1,0)	(1,0)	(1,0)	(1,0)	(1,0)	(1,0)	(1,0)	(1,0)	(1,0)	(1,0)	(1,0)	
L1D 475>	(-110,2)	(-180,3)	(1,0)	(1,0)	(1,0)	(1,0)	(1,0)	(1,0)	(1,0)	(1,0)	(1,0)	(1,0)	(1,0)	(1,0)	(1,0)	(1,0)	
L1D 476>	(-200,11)	(-398,1)	(-85,1)	(1,0)	(1,0)	(1,0)	(1,0)	(1,0)	(1,0)	(1,0)	(1,0)	(1,0)	(1,0)	(1,0)	(1,0)	(1,0)	
L1D 477>	(-128,1)	(1,0)	(1,0)	(1,0)	(1,0)	(1,0)	(1,0)	(1,0)	(1,0)	(1,0)	(1,0)	(1,0)	(1,0)	(1,0)	(1,0)	(1,0)	
L1D 478>	(1,0)	(1,0)	(1,0)	(1,0)	(1,0)	(1,0)	(1,0)	(1,0)	(1,0)	(1,0)	(1,0)	(1,0)	(1,0)	(1,0)	(1,0)	(1,0)	
L1D 479>	(-218,1)	(-216,1)	(-160,2)	(1,0)	(1,0)	(1,0)	(1,0)	(1,0)	(1,0)	(1,0)	(1,0)	(1,0)	(1,0)	(1,0)	(1,0)	(1,0)	
L1D 480>	(-224,1)	(-32,4)	(-344,1)	(-359,1)	(-480,18)	(-409,28)	(-472,2)	(1,0)	(1,0)	(1,0)	(1,0)	(1,0)	(1,0)	(1,0)	(1,0)	(1,0)	
L1D 481>	(1,0)	(1,0)	(1,0)	(1,0)	(1,0)	(1,0)	(1,0)	(1,0)	(1,0)	(1,0)	(1,0)	(1,0)	(1,0)	(1,0)	(1,0)	(1,0)	
L1D 482>	(-110,2)	(-117,2)	(-193,1)	(-150,1)	(1,0)	(1,0)	(1,0)	(1,0)	(1,0)	(1,0)	(1,0)	(1,0)	(1,0)	(1,0)	(1,0)	(1,0)	
L1D 483>	(1,0)	(1,0)	(1,0)	(1,0)	(1,0)	(1,0)	(1,0)	(1,0)	(1,0)	(1,0)	(1,0)	(1,0)	(1,0)	(1,0)	(1,0)	(1,0)	
L1D 484>	(-192,1)	(1,0)	(1,0)	(1,0)	(1,0)	(1,0)	(1,0)	(1,0)	(1,0)	(1,0)	(1,0)	(1,0)	(1,0)	(1,0)	(1,0)	(1,0)	
L1D 485>	(11,2)	(-192,2)	(-218,1)	(1,0)	(1,0)	(1,0)	(1,0)	(1,0)	(1,0)	(1,0)	(1,0)	(1,0)	(1,0)	(1,0)	(1,0)	(1,0)	
L1D 486>	(-128,1)	(-160,2)	(1,0)	(1,0)	(1,0)	(1,0)	(1,0)	(1,0)	(1,0)	(1,0)	(1,0)	(1,0)	(1,0)	(1,0)	(1,0)	(1,0)	
L1D 487>	(1,0)	(1,0)	(1,0)	(1,0)	(1,0)	(1,0)	(1,0)	(1,0)	(1,0)	(1,0)	(1,0)	(1,0)	(1,0)	(1,0)	(1,0)	(1,0)	
L1D 488>	(-16,1)	(-128,1)	(1,0)	(1,0)	(1,0)	(1,0)	(1,0)	(1,0)	(1,0)	(1,0)	(1,0)	(1,0)	(1,0)	(1,0)	(1,0)	(1,0)	
L1D 489>	(1,0)	(1,0)	(1,0)	(1,0)	(1,0)	(1,0)	(1,0)	(1,0)	(1,0)	(1,0)	(1,0)	(1,0)	(1,0)	(1,0)	(1,0)	(1,0)	
L1D 490>	(-88,1)	(1,0)	(1,0)	(1,0)	(1,0)	(1,0)	(1,0)	(1,0)	(1,0)	(1,0)	(1,0)	(1,0)	(1,0)	(1,0)	(1,0)	(1,0)	
L1D 491>	(1,0)	(1,0)	(1,0)	(1,0)	(1,0)	(1,0)	(1,0)	(1,0)	(1,0)	(1,0)	(1,0)	(1,0)	(1,0)	(1,0)	(1,0)	(1,0)	
L1D 492>	(1,0)	(1,0)	(1,0)	(1,0)	(1,0)	(1,0)	(1,0)	(1,0)	(1,0)	(1,0)	(1,0)	(1,0)	(1,0)	(1,0)	(1,0)	(1,0)	
L1D 493>	(11,1)	(1,0)	(1,0)	(1,0)	(1,0)	(1,0)	(1,0)	(1,0)	(1,0)	(1,0)	(1,0)	(1,0)	(1,0)	(1,0)	(1,0)	(1,0)	
L1D 494>	(-218,1)	(1,0)	(1,0)	(1,0)	(1,0)	(1,0)	(1,0)	(1,0)	(1,0)	(1,0)	(1,0)	(1,0)	(1,0)	(1,0)	(1,0)	(1,0)	
L1D 495>	(-160,2)	(1,0)	(1,0)	(1,0)	(1,0)	(1,0)	(1,0)	(1,0)	(1,0)	(1,0)	(1,0)	(1,0)	(1,0)	(1,0)	(1,0)	(1,0)	
L1D 496>	(-148,1)	(1,0)	(1,0)	(1,0)	(1,0)	(1,0)	(1,0)	(1,0)	(1,0)	(1,0)	(1,0)	(1,0)	(1,0)	(1,0)	(1,0)	(1,0)	
L1D 497>	(1,0)	(1,0)	(1,0)	(1,0)	(1,0)	(1,0)	(1,0)	(1,0)	(1,0)	(1,0)	(1,0)	(1,0)	(1,0)	(1,0)	(1,0)	(1,0)	
L1D 498>	(-182,1)	(1,0)	(1,0)	(1,0)	(1,0)	(1,0)	(1,0)	(1,0)	(1,0)	(1,0)	(1,0)	(1,0)	(1,0)	(1,0)	(1,0)	(1,0)	
L1D 499>	(-405,1)	(11,1)	(1,0)	(1,0)	(1,0)	(1,0)	(1,0)	(1,0)	(1,0)	(1,0)	(1,0)	(1,0)	(1,0)	(1,0)	(1,0)	(1,0)	
L1D 500>	(1,0)	(1,0)	(1,0)	(1,0)	(1,0)	(1,0)	(1,0)	(1,0)	(1,0)	(1,0)	(1,0)	(1,0)	(1,0)	(1,0)	(1,0)	(1,0)	
L1D 501>	(-192,1)	(1,0)	(1,0)	(1,0)	(1,0)	(1,0)	(1,0)	(1,0)	(1,0)	(1,0)	(1,0)	(1,0)	(1,0)	(1,0)	(1,0)	(1,0)	
L1D 502>	(-160,2)	(1,0)	(1,0)	(1,0)	(1,0)	(1,0)	(1,0)	(1,0)	(1,0)	(1,0)	(1,0)	(1,0)	(1,0)	(1,0)	(1,0)	(1,0)	
L1D 503>	(1,0)	(1,0)	(1,0)	(1,0)	(1,0)	(1,0)	(1,0)	(1,0)	(1,0)	(1,0)	(1,0)	(1,0)	(1,0)	(1,0)	(1,0)	(1,0)	
L1D 504>	(-375,6)	(1,0)	(1,0)	(1,0)	(1,0)	(1,0)	(1,0)	(1,0)	(1,0)	(1,0)	(1,0)	(1,0)	(1,0)	(1,0)	(1,0)	(1,0)	
L1D 505>	(1,0)	(1,0)	(1,0)	(1,0)	(1,0)	(1,0)	(1,0)	(1,0)	(1,0)	(1,0)	(1,0)	(1,0)	(1,0)	(1,0)	(1,0)	(1,0)	
L1D 506>	(1,0)	(1,0)	(1,0)	(1,0)	(1,0)	(1,0)	(1,0)	(1,0)	(1,0)	(1,0)	(1,0)	(1,0)	(1,0)	(1,0)	(1,0)	(1,0)	
L1D 507>	(1,0)	(1,0)	(1,0)	(1,0)	(1,0)	(1,0)	(1,0)	(1,0)	(1,0)	(1,0)	(1,0)	(1,0)	(1,0)	(1,0)	(1,0)	(1,0)	
L1D 508>	(1,0)	(1,0)	(1,0)	(1,0)	(1,0)	(1,0)	(1,0)	(1,0)	(1,0)	(1,0)	(1,0)	(1,0)	(1,0)	(1,0)	(1,0)	(1,0)	
L1D 509>	(1,0)	(1,0)	(1,0)	(1,0)	(1,0)	(1,0)	(1,0)	(1,0)	(1,0)	(1,0)	(1,0)	(1,0)	(1,0)	(1,0)	(1,0)	(1,0)	
L1D 510>	(1,0)	(1,0)	(1,0)	(1,0)	(1,0)	(1,0)	(1,0)	(1,0)	(1,0)	(1,0)	(1,0)	(1,0)	(1,0)	(1,0)	(1,0)	(1,0)	
L1D 511>	(1,0)	(1,0)	(1,0)	(1,0)	(1,0)	(1,0)	(1,0)	(1,0)	(1,0)	(1,0)	(1,0)	(1,0)	(1,0)	(1,0)	(1,0)	(1,0)	

L2C -64>	(-11,1)	(1,236)	(-4,3)	(-19,1)	(21,1)	(2,1)	(-1,4)	(-24,1)	(5,1)	(-5,51)	(28,1)	(54,1)	(0,2)	(-3,4)	(11,5)	(-6,16)	
L2C -63>	(1,0)	(1,0)	(1,0)	(1,0)	(1,0)	(1,0)	(1,0)	(1,0)	(1,0)	(1,0)	(1,0)	(1,0)	(1,0)	(1,0)	(1,0)	(1,0)	
L2C -62>	(55,1)	(1,0)	(1,0)	(1,0)	(1,0)	(1,0)	(1,0)	(1,0)	(1,0)	(1,0)	(1,0)	(1,0)	(1,0)	(1,0)	(1,0)	(1,0)	
L2C -61>	(30,1)	(1,0)	(1,0)	(1,0)	(1,0)	(1,0)	(1,0)	(1,0)	(1,0)	(1,0)	(1,0)	(1,0)	(1,0)	(1,0)	(1,0)	(1,0)	
L2C -60>	(18,1)	(1,0)	(1,0)	(1,0)	(1,0)	(1,0)	(1,0)	(1,0)	(1,0)	(1,0)	(1,0)	(1,0)	(1,0)	(1,0)	(1,0)	(1,0)	
L2C -59>	(37,1)	(40,1)	(1,1)	(4,1)	(8,1)	(1,0)	(1,0)	(1,0)	(1,0)	(1,0)	(1,0)	(1,0)	(1,0)	(1,0)	(1,0)	(1,0)	
L2C -58>	(54,1)	(1,0)	(1,0)	(1,0)	(1,0)	(1,0)	(1,0)	(1,0)	(1,0)	(1,0)	(1,0)	(1,0)	(1,0)	(1,0)	(1,0)	(1,0)	
L2C -57>	(1,2)	(-1,1)	(21,1)	(42,1)	(17,1)	(28,1)	(2,1)	(1,0)	(1,0)	(1,0)	(1,0)	(1,0)	(1,0)	(1,0)	(1,0)	(1,0)	
L2C -56>	(7,1)	(46,1)	(12,1)	(37,1)	(42,1)	(14,1)	(4,1)	(16,2)	(1,3)	(1,0)	(1,0)	(1,0)	(1,0)	(1,0)	(1,0)	(1,0)	
L2C -55>	(1,1)	(2,2)	(34,1)	(39,1)	(52,1)	(16,1)	(56,1)	(9,1)	(1,0)	(1,0)	(1,0)	(1,0)	(1,0)	(1,0)	(1,0)	(1,0)	
L2C -54>	(1,6)	(56,2)	(26,1)	(39,1)	(55,2)	(37,1)	(43,1)	(-3,1)	(29,1)	(41,1)	(34,1)	(4,1)	(1,0)	(1,0)	(1,0)	(1,0)	
L2C -53>	(1,5)	(31,1)	(2,1)	(30,1)	(-4,1)	(22,1)	(-1,1)	(1,0)	(1,0)	(1,0)	(1,0)	(1,0)	(1,0)	(1,0)	(1,0)	(1,0)	
L2C -52>	(6,2)	(28,1)	(48,1)	(32,1)	(37,2)	(1,7)	(30,2)	(52,1)	(-1,1)	(10,2)	(25,1)	(22,1)	(33,1)	(1,0)	(1,0)	(1,0)	
L2C -51>	(45,2)	(18,1)	(50,2)	(1,7)	(32,2)	(44,1)	(6,1)	(11,1)	(-1,2)	(34,2)	(3,1)	(38,1)	(4,2)	(2,1)	(10,1)	(48,1)	
L2C -50>	(47,1)	(1,6)	(52,1)	(11,2)	(-1,3)	(43,6)	(41,1)	(10,2)	(3,2)	(-5,1)	(56,1)	(51,1)	(-6,1)	(24,1)	(37,1)	(21,1)	
L2C -49>	(28,3)	(0,2)	(50,2)	(5,1)	(3,1)	(37,1)	(1,7)	(25,1)	(51,1)	(6,1)	(44,1)	(26,1)	(14,1)	(8,1)	(32,1)	(21,1)	
L2C -48>	(24,1)	(28,1)	(21,1)	(1,8)	(-8,1)	(2,3)	(10,2)	(32,1)	(-5,1)	(52,1)	(35,1)	(6,1)	(17,1)	(3,1)	(36,1)	(1,0)	
L2C -47>	(22,2)	(33,4)	(39,1)	(27,1)	(46,1)	(-7,1)	(19,1)	(1,8)	(2,3)	(31,1)	(42,1)	(-1,2)	(48,1)	(35,1)	(14,1)	(38,1)	
L2C -46>	(8,1)	(34,2)	(2,1)	(1,3)	(13,1)	(50,1)	(24,1)	(19,2)	(14,2)	(41,2)	(-1,1)	(9,1)	(27,1)	(-8,2)	(17,1)	(1,0)	
L2C -45>	(-4,1)	(52,2)	(8,1)	(0,3)	(27,1)	(1,7)	(2,1)	(20,1)	(10,2)	(41,1)	(-1,1)	(11,1)	(60,1)	(42,1)	(6,1)	(37,1)	
L2C -44>	(1,9)	(4,1)	(-8,1)	(3,1)	(56,1)	(32,1)	(-1,1)	(2,1)	(34,1)	(52,1)	(37,1)	(43,1)	(44,1)	(25,1)	(13,1)	(45,1)	
L2C -43>	(1,8)	(30,1)	(49,1)	(50,1)	(19,1)	(25,1)	(55,1)	(22,1)	(-6,1)	(7,1)	(-4,1)	(14,1)	(57,1)	(56,1)	(3,2)	(-16,1)	
L2C -42>	(27,1)	(35,1)	(1,12)	(40,2)	(22,1)	(10,1)	(19,1)	(-1,4)	(11,2)	(25,1)	(28,1)	(47,2)	(43,2)	(3,2)	(8,2)	(46,1)	
L2C -41>	(1,16)	(30,2)	(39,3)	(-7,1)	(24,1)	(20,1)	(0,1)	(52,1)	(4,1)	(2,2)	(25,1)	(43,3)	(35,2)	(-3,4)	(8,2)	(18,1)	
L2C -40>	(14,1)	(-5,4)	(60,1)	(1,19)	(4,2)	(13,1)	(41,2)	(28,1)	(31,1)	(8,2)	(9,1)	(3,1)	(16,1)	(45,1)	(58,2)	(42,1)	
L2C -39>	(1,19)	(-12,1)	(-16,1)	(22,1)	(-2,4)	(30,1)	(-7,1)	(8,1)	(2,4)	(39,1)	(38,2)	(35,2)	(28,1)	(14,1)	(32,1)	(20,1)	
L2C -38>	(5,1)	(1,22)	(-4,1)	(-5,1)	(27,1)	(-2,3)	(39,2)	(22,1)	(12,1)	(23,1)	(56,1)	(43,1)	(2,2)	(-8,1)	(-1,4)	(-9,2)	
L2C -37>	(1,21)	(14,2)	(5,1)	(6,1)	(-1,4)	(18,2)	(45,1)	(10,1)	(-11,1)	(51,1)	(3,2)	(2,1)	(-8,1)	(34,1)	(39,1)	(52,1)	
L2C -36>	(24,1)	(4,1)	(1,34)	(-5,1)	(45,1)	(34,2)	(52,1)	(25,2)	(2,1)	(12,1)	(6,1)	(-1,3)	(3,1)	(50,1)	(15,1)	(-16,1)	
L2C -35>	(34,1)	(22,1)	(30,1)	(44,3)	(39,2)	(1,17)	(35,4)	(2,1)	(8,3)	(52,1)	(31,1)	(-1,4)	(33,3)	(55,1)	(-4,2)	(13,1)	
L2C -34>	(1,17)	(-5,2)	(3,1)	(12,3)	(4,1)	(35,3)	(5,1)	(20,1)	(31,1)	(51,1)	(36,1)	(-4,1)	(-7,1)	(55,1)	(26,1)	(-6,1)	
L2C -33>	(31,1)	(20,2)	(-6,2)	(-13,2)	(-1,3)	(1,10)	(15,1)	(2,4)	(8,2)	(-2,2)	(22,3)	(11,1)	(21,2)	(-10,1)	(36,1)	(34,1)	
L2C -32>	(44,1)	(-2,1)	(10,1)	(1,11)	(19,1)	(6,1)	(20,1)	(2,3)	(52,1)	(33,3)	(12,2)	(57,1)	(15,1)	(0,2)	(-11,1)	(7,2)	
L2C -31>	(-1,5)	(1,18)	(6,2)	(5,3)	(15,2)	(-19,2)	(45,2)	(46,1)	(53,1)	(44,1)	(34,1)	(39,1)	(25,2)	(30,2)	(-4,1)	(33,2)	
L2C -30>	(1,24)	(31,4)	(-21,1)	(-9,2)	(9,1)	(40,3)	(29,1)	(-5,3)	(28,1)	(43,1)	(8,4)	(58,1)	(49,1)	(15,3)	(23,1)	(42,1)	
L2C -29>	(1,17)	(4,2)	(9,3)	(26,4)	(31,2)	(25,5)	(10,2)	(-1,7)	(3,3)	(-8,1)	(30,2)	(2,1)	(21,4)	(0,7)	(6,3)	(27,1)	
L2C -28>	(28,2)	(1,16)	(29,1)	(-19,1)	(18,1)	(-3,3)	(10,2)	(19,1)	(12,1)	(8,1)	(45,1)	(-8,2)	(50,2)	(30,1)	(13,2)	(52,1)	
L2C -27>	(1,18)	(27,6)	(2,2)	(21,6)	(4,6)	(8,4)	(-1,1)	(33,1)	(-6,1)	(48,1)	(47,2)	(6,2)	(-15,1)	(-3,1)	(22,1)	(24,3)	
L2C -26>	(1,23)	(8,2)	(4,2)	(-18,2)	(12,1)	(18,2)	(24,1)	(36,2)	(10,1)	(5,1)	(23,4)	(0,1)	(-10,1)	(22,1)	(35,1)	(-1,3)	
L2C -25>	(-1,4)	(1,17)	(8,7)	(13,3)	(3,7)	(32,2)	(5,2)	(-9,1)	(37,1)	(6,1)	(16,1)	(18,2)	(-2,4)	(10,7)	(25,2)	(0,6)	
L2C -24>	(-8,6)	(1,37)	(-27,2)	(2,5)	(15,3)	(-29,3)	(18,2)	(25,2)	(6,2)	(8,1)	(-17,1)	(22,2)	(17,2)	(-30,1)	(-9,1)	(41,1)	
L2C -23>	(1,28)	(14,3)	(43,2)	(2,8)	(41,1)	(6,2)	(-10,1)	(15,2)	(24,2)	(13,3)	(-23,2)	(-4,2)	(32,1)	(11,4)	(-2,4)	(30,1)	
L2C -22>	(5,3)	(1,27)	(25,1)	(11,2)	(8,2)	(-12,2)	(2,4)	(-9,1)	(39,1)	(-8,3)	(-2,3)	(35,2)	(-4,2)	(-1,4)	(15,2)	(0,4)	
L2C -21>	(2,14)	(1,26)	(-7,2)	(0,49)	(-10,2)	(19,2)	(36,3)	(20,4)	(15,5)	(6,1)	(4,5)	(10,2)	(11,1)	(9,2)	(-16,1)	(8,5)	
L2C -20>	(1,40)	(13,3)	(17,3)	(10,3)	(40,1)	(16,4)	(48,1)	(-12,1)	(-11,1)	(26,2)	(-6,1)	(42,2)	(2,8)	(-1,3)	(9,1)	(4,3)	
L2C -19>	(1,71)	(-8,10)	(9,3)	(14,2)	(2,15)	(-34,2)	(16,3)	(0,95)	(23,3)	(20,2)	(12,2)	(-11,1)	(8,3)	(-5,2)	(36,1)	(15,5)	
L2C -18>	(1,42)	(-1,5)	(19,4)	(5,6)	(-4,3)	(2,17)	(17,2)	(14,3)	(-3,3)	(8,2)	(10,2)	(-22,1)	(38,1)	(4,4)	(-13,1)	(11,5)	
L2C -17>	(1,39)	(-1,8)	(11,3)	(19,4)	(17,2)	(-16,1)	(21,1)	(5,1)	(13,3)	(10,2)	(0,10)	(31,1)	(16,4)	(3,4)	(2,5)	(-4,2)	
L2C -16>	(17,9)	(1,45)	(-1,12)	(16,3)	(-23,2)	(8,5)	(32,1)	(56,1)	(53,1)	(-2,6)	(2,7)	(10,2)	(-29,1)	(0,11)	(14,2)	(34,1)	
L2C -15>	(1,46)	(5,6)	(-2,2)	(9,2)	(16,8)	(10,4)	(-1,24)	(8,5)	(17,2)	(-3,3)	(-9,2)	(-6,1)	(46,1)	(-25,1)	(21,1)	(26,3)	
L2C -14>	(27,2)	(-2,2)	(-1,15)	(1,49)	(2,8)	(7,5)	(3,3)	(-20,1)	(-30,2)	(15,7)	(-35,1)	(5,8)	(16,3)	(8,9)	(-24,3)	(56,1)	
L2C -13>	(-2,7)	(-1,9)	(1,36)	(2,6)	(-8,4)	(0,28)	(14,6)	(5,2)	(-3,2)	(8,6)	(16,3)	(52,1)	(12,1)	(11,4)	(37,1)	(26,1)	
L2C -12>	(1,48)	(2,12)	(-8,3)	(13,7)	(-1,11)	(-6,1)	(-4,3)	(16,2)	(-9,2)	(32,1)	(-29,1)	(-7,3)	(3,5)	(11,5)	(26,2)	(8,14)	
L2C -11>	(1,50)	(0,4)	(13,2)	(15,8)	(24,2)	(19,1)	(17,3)	(-4,4)	(-15,3)	(-10,3)	(28,2)	(-1,5)	(-9,1)	(8,12)	(4,2)	(-23,2)	
L2C -10>	(1,56)	(6,5)	(10,11)	(11,7)	(9,6)	(-5,3)	(-11,3)	(3,7)	(8,26)	(25,4)	(2,9)	(0,2)	(-1,17)	(20,1)	(17,5)	(-46,1)	
L2C -9>	(7,4)	(-1,19)	(1,55)	(9,64)	(8,11)	(19,4)	(-30,2)	(12,4)	(10,11)	(2,5)	(16,2)	(11,11)	(20,2)	(17,2)	(0,2)	(32,1)	
L2C -8>	(14,4)	(1,42)	(9,31)	(27,26)	(15,5)	(30,3)	(5,7)	(0,8)	(19,7)	(7,3)	(40,1)	(39,3)	(-1,18)	(2,5)	(-3,3)	(8,211)	
L2C -7>	(1,61)	(0,6)	(11,3)	(2,10)	(9,7)	(-3,5)	(-11,2)	(-10,9)	(-4,3)	(16,3)	(-1,12)	(8,20)	(-2,5)	(-20,2)	(15,1)	(21,1)	
L2C -6>	(-10,2)	(12,4)	(8,8)	(7,13)	(1,113)	(-9,3)	(6,8)	(16,3)	(2,28)	(14,1)	(-4,4)	(-12,3)	(25,1)	(-2,9)	(-1,20)	(-8,5)	
L2C -5>	(1,175)	(2,13)	(37,1)	(-1,16)	(3,10)	(0,25)	(15,6)	(-14,2)	(8,13)	(14,7)	(6,7)	(-2,14)	(4,19)	(16,7)	(-3,3)	(-19,5)	
L2C -4>	(1,92)	(0,12)	(-2,11)	(4,8)	(-24,3)	(2,38)	(6,2)	(12,5)	(-15,2)	(9,4)	(-6,5)	(-16,3)	(-1,27)	(8,6)	(-7,4)	(5,9)	
L2C -3>	(1,93)	(-16,1)	(2,23)	(11,2)	(-8,3)	(-24,3)	(-1,9)	(-3,7)	(9,4)	(-14,3)	(4,11)	(-7,2)	(17,2)	(-9,5)	(7,4)	(-34,2)	
L2C -2>	(0,126)	(6,6)	(4,16)	(-8,14)	(-1,22)	(1,119)	(3,16)	(5,5)	(-9,8)	(2,88)	(-19,10)	(39,1)	(-2,9)	(-4,4)	(-17,4)	(-7,3)	
L2C -1>	(5,1)	(-4,13)	(10,18)	(-9,10)	(-8,18)	(2,100)	(19,7)	(0,72)	(7,21)	(-1,55)	(3,20)	(1,135)	(-11,7)	(-3,7)	(-14,13)	(15,15)	
L2C 0>	(0,153)	(1,5)	(-32,0)	(-1,0)	(5,0)	(-6,0)	(-16,0)	(19,0)	(2,2)	(3,0)	(-10,0)	(13,0)	(-9,10)	(-8,0)	(-19,0)	(15,0)	
L2C 1>	(1,160)	(33,1)	(-4,7)	(-2,7)	(-24,1)	(8,2)	(2,7)	(-8,2)	(11,4)	(-1,11)	(-18,3)	(3,3)	(-6,9)	(-5,8)	(0,2)	(10,1)	
L2C 2>	(1,236)	(-6,13)	(-1,32)	(-11,15)	(2,69)	(-3,15)	(3,14)	(-16,6)	(0,22)	(8,11)	(-22,1)	(-13,4)	(-10,16)	(-12,6)	(-9,10)	(-2,116)	
L2C 3>	(-1,20)	(-16,4)	(1,114)	(-8,10)	(8,11)	(-6,6)	(15,3)	(-31,1)	(32,3)	(-12,7)	(-38,4)	(2,6)	(-2,13)	(5,3)	(-37,3)	(14,5)	
L2C 4>	(1,118)	(-20,7)	(2,26)	(-5,13)	(-6,1)	(-2,8)	(-25,4)	(11,2)	(-10,2)	(-21,2)	(-3,15)	(27,6)	(0,5)	(15,2)	(-8,5)	(-1,13)	
L2C 5>	(1,56)	(-1,22)	(7,4)	(8,4)	(2,14)	(27,3)	(-5,15)	(-12,1)	(-6,8)	(22,2)	(6,5)	(-2,9)	(-4,2)	(3,3)	(19,2)	(-20,2)	
L2C 6>	(1,35)	(4,14)	(2,15)	(-7,3)	(21,4)	(-16,2)	(-4,3)	(-6,8)	(-1,10)	(-33,1)	(-41,1)	(-14,5)	(28,1)	(-12,8)	(-42,3)	(-13,1)	
L2C 7>	(-1,11)	(-8,7)	(1,45)	(2,9)	(-16,4)	(-2,2)	(4,9)	(-41,6)	(12,2)	(-35,2)	(-3,4)	(-4,2)	(7,3)	(-17,4)	(-36,1)	(-23,1)	
L2C 8>	(-8,52)	(1,63)	(-1,22)	(2,40)	(-7,19)	(13,4)	(-9,22)	(0,193)	(3,1)	(-4,8)	(-5,4)	(7,6)	(4,11)	(-6,14)	(-13,8)	(16,4)	
L2C 9>	(1,58)	(-2,3)	(-1,14)	(4,7)	(41,1)	(-21,2)	(-3,9)	(0,50)	(-8,21)	(-7,4)	(2,16)	(-44,2)	(-11,5)	(-6,3)	(16,5)	(6,8)	
L2C 10>	(1,59)	(8,3)	(2,12)	(6,3)	(-15,1)	(-19,5)	(-8,6)	(-12,4)	(15,3)	(-1,8)	(-4,5)	(-7,6)	(-10,14)	(-9,10)	(-11,5)	(-13,3)	
L2C 11>	(-8,5)	(-12,3)	(1,83)	(-6,6)	(-2,12)	(-19,4)	(-17,3)	(-5,4)	(-20,2)	(-34,2)	(-1,8)	(4,7)	(-10,2)	(-3,10)	(-4,3)	(-16,7)	
L2C 12>	(2,16)	(1,52)	(-35,2)	(5,4)	(3,3)	(-1,3)	(8,3)	(32,3)	(-15,2)	(-8,3)	(15,1)	(-3,2)	(42,1)	(-39,1)	(-14,3)	(10,1)	
L2C 13>	(-3,4)	(2,12)	(-7,3)	(-8,7)	(-6,2)	(-10,3)	(-37,1)	(3,7)	(1,29)	(-20,3)	(12,3)	(-13,19)	(15,2)	(-43,1)	(-42,1)	(-56,1)	
L2C 14>	(1,35)	(-5,3)	(-1,10)	(-15,5)	(2,8)	(-13,10)	(-12,2)	(4,6)	(-17,4)	(-10,3)	(-14,4)	(-36,2)	(-23,2)	(-18,1)	(-37,1)	(30,3)	
L2C 15>	(2,8)	(1,50)	(-7,5)	(-16,8)	(-33,1)	(3,7)	(9,3)	(-1,7)	(-14,18)	(-2,5)	(37,2)	(-10,2)	(7,2)	(-15,4)	(6,2)	(-4,3)	
L2C 16>	(-17,3)	(-19,9)	(1,30)	(2,10)	(38,1)	(-15,14)	(-30,2)	(-50,2)	(-14,5)	(-16,5)	(-12,6)	(-2,3)	(-39,2)	(-7,5)	(-20,5)	(-1,16)	
L2C 17>	(2,30)	(-16,4)	(-5,1)	(1,28)	(-15,4)	(-1,5)	(24,2)	(3,2)	(-8,3)	(-6,1)	(-17,10)	(-18,3)	(-26,1)	(8,3)	(4,4)	(-20,1)	
L2C 18>	(3,3)	(2,5)	(1,27)	(21,1)	(-30,2)	(-1,8)	(-6,2)	(14,1)	(-19,8)	(4,2)	(5,1)	(28,1)	(-2,3)	(17,1)	(-33,2)	(-5,1)	
L2C 19>	(-1,5)	(-18,11)	(1,25)	(-7,2)	(-21,8)	(6,2)	(-29,2)	(-5,1)	(-2,3)	(-15,3)	(-36,1)	(-19,57)	(22,1)	(2,14)	(-51,1)	(-20,1)	
L2C 20>	(1,15)	(-3,3)	(-19,5)	(-5,1)	(-32,1)	(5,1)	(2,4)	(-31,1)	(-22,2)	(-18,2)	(-7,3)	(-1,4)	(-11,1)	(-16,2)	(-40,1)	(6,3)	
L2C 21>	(1,19)	(4,6)	(8,1)	(-21,40)	(-5,4)	(-2,7)	(-18,3)	(-1,5)	(30,1)	(-26,3)	(-16,1)	(-27,1)	(-29,1)	(-3,1)	(-11,1)	(2,3)	
L2C 22>	(-51,1)	(-20,1)	(10,1)	(2,4)	(-35,2)	(1,19)	(-1,3)	(24,1)	(-30,2)	(8,1)	(-34,1)	(3,3)	(15,1)	(-10,1)	(-23,1)	(7,1)	
L2C 23>	(1,20)	(-2,2)	(4,3)	(-13,2)	(-10,2)	(-37,1)	(2,7)	(-5,2)	(-15,2)	(16,1)	(11,1)	(-4,1)	(20,1)	(-39,1)	(-18,1)	(-24,6)	
L2C 24>	(5,3)	(4,2)	(1,24)	(-2,3)	(-3,1)	(-45,2)	(-29,1)	(0,1)	(-61,1)	(26,1)	(-38,2)	(7,1)	(12,1)	(-24,7)	(-42,2)	(3,1)	
L2C 25>	(1,19)	(-25,7)	(-6,2)	(8,3)	(-15,2)	(21,1)	(-19,2)	(-33,1)	(-18,1)	(5,3)	(-17,6)	(-4,2)	(2,22)	(9,1)	(-41,1)	(-1,3)	
L2C 26>	(-4,5)	(12,1)	(-30,1)	(-33,1)	(1,18)	(-41,1)	(4,4)	(-35,1)	(-23,2)	(-12,1)	(2,9)	(-52,1)	(-11,1)	(-43,1)	(-1,1)	(-42,1)	
L2C 27>	(-27,9)	(-50,1)	(1,24)	(20,1)	(-13,1)	(-12,2)	(-28,1)	(-23,2)	(-20,1)	(-5,1)	(-11,1)	(-19,25)	(2,7)	(3,2)	(-18,3)	(-17,1)	
L2C 28>	(1,15)	(-19,2)	(4,2)	(-45,1)	(-27,4)	(-46,1)	(-9,2)	(-6,3)	(-2,1)	(-33,2)	(-39,1)	(-8,2)	(-5,1)	(-7,1)	(-40,2)	(-26,1)	
L2C 29>	(-44,1)	(1,14)	(2,4)	(-30,2)	(19,1)	(18,1)	(-24,2)	(-2,3)	(-34,1)	(-54,2)	(11,1)	(7,1)	(-40,2)	(10,1)	(-25,3)	(5,1)	
L2C 30>	(2,1)	(16,2)	(7,2)	(-40,3)	(-12,2)	(-39,2)	(-42,1)	(24,1)	(6,2)	(-31,1)	(11,1)	(17,1)	(1,22)	(-16,3)	(-24,2)	(13,1)	
L2C 31>	(1,15)	(0,1)	(4,1)	(-23,2)	(-42,2)	(-40,1)	(-21,2)	(-3,1)	(-10,1)	(-5,2)	(10,2)	(-32,2)	(12,2)	(-20,2)	(-24,4)	(-11,2)	
L2C 32>	(1,17)	(-31,1)	(-35,2)	(-4,2)	(-40,2)	(-29,2)	(6,2)	(-2,1)	(13,1)	(7,2)	(-15,1)	(-24,1)	(3,4)	(-6,1)	(-14,1)	(-23,1)	
L2C 33>	(1,16)	(2,7)	(-12,1)	(-23,1)	(-27,3)	(10,1)	(-30,1)	(-20,2)	(-25,1)	(-17,1)	(-7,1)	(-1,2)	(-3,2)	(-4,3)	(-42,3)	(-44,1)	
L2C 34>	(-7,1)	(1,13)	(-35,1)	(-23,3)	(2,5)	(13,1)	(10,1)	(7,1)	(-2,4)	(-1,2)	(21,1)	(-33,2)	(4,2)	(-15,1)	(-10,2)	(-8,3)	
L2C 35>	(1,16)	(-24,2)	(-10,3)	(-31,2)	(13,3)	(-45,2)	(-23,3)	(-2,2)	(-1,4)	(-40,1)	(-4,3)	(2,4)	(9,1)	(3,3)	(-51,1)	(-36,1)	
L2C 36>	(16,3)	(-35,4)	(-27,1)	(9,2)	(1,8)	(-2,1)	(-10,1)	(7,2)	(-16,1)	(15,1)	(2,2)	(-12,1)	(-38,1)	(-1,3)	(-5,2)	(-26,1)	
L2C 37>	(-18,2)	(0,1)	(-38,2)	(-48,2)	(-1,4)	(-19,1)	(-31,2)	(-22,1)	(9,1)	(-35,2)	(-36,1)	(13,1)	(1,8)	(3,1)	(-24,2)	(-4,2)	
L2C 38>	(-15,1)	(-20,1)	(1,5)	(-1,2)	(-50,1)	(-43,2)	(21,1)	(-5,1)	(2,4)	(-28,1)	(-18,1)	(-14,1)	(10,1)	(-3,2)	(14,2)	(-31,1)	
L2C 39>	(-45,2)	(1,17)	(-40,1)	(-13,1)	(-5,3)	(-47,1)	(-1,3)	(-30,2)	(2,2)	(-36,1)	(-26,1)	(-19,2)	(-2,1)	(-39,1)	(-38,2)	(-23,1)	
L2C 40>	(14,1)	(1,12)	(2,1)	(-24,1)	(-29,1)	(-44,1)	(-37,1)	(-12,1)	(13,1)	(-51,1)	(-25,2)	(-39,2)	(-1,2)	(-15,1)	(-38,1)	(-9,1)	
L2C 41>	(2,2)	(8,2)	(-49,1)	(-18,1)	(-57,1)	(-31,1)	(-16,1)	(1,4)	(-27,2)	(3,2)	(-42,1)	(-2,2)	(-56,1)	(-19,1)	(-21,1)	(-3,1)	
L2C 42>	(-10,1)	(-34,2)	(-47,1)	(8,1)	(1,10)	(14,1)	(2,2)	(-9,1)	(-31,1)	(-5,1)	(12,2)	(-2,1)	(-30,1)	(-7,1)	(3,1)	(-4,1)	
L2C 43>	(-40,1)	(-19,1)	(-15,1)	(1,13)	(-17,2)	(-7,2)	(-16,1)	(-35,1)	(-5,1)	(-48,1)	(-3,1)	(-50,1)	(-8,1)	(-1,3)	(8,2)	(-51,1)	
L2C 44>	(-52,2)	(-41,1)	(8,2)	(-33,1)	(-35,1)	(2,4)	(1,9)	(-38,1)	(-21,1)	(-14,2)	(-39,1)	(-44,1)	(-40,1)	(3,2)	(-1,1)	(-49,1)	
L2C 45>	(-45,2)	(1,4)	(-48,1)	(-51,1)	(-1,3)	(-28,1)	(-7,1)	(2,2)	(-25,1)	(6,1)	(-49,2)	(3,1)	(-39,1)	(-23,1)	(0,1)	(-53,1)	
L2C 46>	(-3,2)	(-15,1)	(-21,1)	(5,1)	(-9,1)	(1,5)	(-7,1)	(-17,2)	(2,1)	(-33,1)	(-8,1)	(-51,1)	(-1,1)	(-42,1)	(-11,1)	(-41,1)	
L2C 47>	(-48,1)	(1,10)	(-50,1)	(-14,1)	(-8,1)	(-19,1)	(12,1)	(-10,1)	(-18,1)	(-1,2)	(-45,1)	(-36,1)	(3,1)	(-6,1)	(-37,1)	(-3,1)	
L2C 48>	(-49,1)	(1,7)	(-2,2)	(3,2)	(-47,2)	(8,1)	(-22,1)	(-29,1)	(2,2)	(-7,1)	(-1,1)	(-9,1)	(-28,1)	(-10,1)	(-18,1)	(-57,1)	
L2C 49>	(-8,1)	(1,7)	(-38,1)	(2,1)	(-22,1)	(-32,1)	(-35,1)	(-37,1)	(-41,1)	(-11,1)	(-44,2)	(-30,1)	(-1,1)	(1,0)	(1,0)	(1,0)	
L2C 50>	(-29,1)	(1,8)	(-2,2)	(-22,1)	(2,2)	(-3,1)	(-31,1)	(-35,2)	(-48,1)	(-41,3)	(-23,1)	(-1,2)	(-7,1)	(-55,1)	(-5,1)	(3,1)	
L2C 51>	(-21,1)	(-33,1)	(-52,1)	(-18,1)	(-47,1)	(-28,1)	(-32,1)	(-1,2)	(-2,1)	(-8,1)	(-16,1)	(-48,1)	(-11,1)	(1,1)	(-10,1)	(-42,1)	
L2C 52>	(1,8)	(-17,2)	(-23,1)	(-53,2)	(-25,1)	(-19,1)	(-54,1)	(-56,1)	(-57,1)	(-21,2)	(-16,1)	(4,1)	(1,0)	(1,0)	(1,0)	(1,0)	
L2C 53>	(-32,1)	(1,4)	(-12,1)	(-6,1)	(-18,1)	(-56,1)	(-1,2)	(2,1)	(-46,1)	(-58,1)	(-41,1)	(-16,1)	(-54,1)	(1,0)	(1,0)	(1,0)	
L2C 54>	(-1,1)	(-8,1)	(-46,1)	(-20,1)	(-33,1)	(1,2)	(-6,1)	(-47,1)	(1,0)	(1,0)	(1,0)	(1,0)	(1,0)	(1,0)	(1,0)	(1,0)	
L2C 55>	(1,5)	(-11,1)	(-49,1)	(-52,1)	(-14,2)	(-54,1)	(-18,1)	(-2,1)	(-44,1)	(-26,1)	(-1,1)	(-50,1)	(-47,1)	(1,0)	(1,0)	(1,0)	
L2C 56>	(1,4)	(-23,1)	(-39,1)	(-22,2)	(-50,1)	(-18,1)	(-42,1)	(-7,1)	(-31,1)	(-60,1)	(1,0)	(1,0)	(1,0)	(1,0)	(1,0)	(1,0)	
L2C 57>	(-47,1)	(-50,1)	(-39,1)	(1,0)	(1,0)	(1,0)	(1,0)	(1,0)	(1,0)	(1,0)	(1,0)	(1,0)	(1,0)	(1,0)	(1,0)	(1,0)	
L2C 58>	(-24,1)	(-4,1)	(-10,1)	(1,0)	(1,0)	(1,0)	(1,0)	(1,0)	(1,0)	(1,0)	(1,0)	(1,0)	(1,0)	(1,0)	(1,0)	(1,0)	
L2C 59>	(1,0)	(1,0)	(1,0)	(1,0)	(1,0)	(1,0)	(1,0)	(1,0)	(1,0)	(1,0)	(1,0)	(1,0)	(1,0)	(1,0)	(1,0)	(1,0)	
L2C 60>	(-21,1)	(-33,1)	(1,0)	(1,0)	(1,0)	(1,0)	(1,0)	(1,0)	(1,0)	(1,0)	(1,0)	(1,0)	(1,0)	(1,0)	(1,0)	(1,0)	
L2C 61>	(-7,1)	(1,0)	(1,0)	(1,0)	(1,0)	(1,0)	(1,0)	(1,0)	(1,0)	(1,0)	(1,0)	(1,0)	(1,0)	(1,0)	(1,0)	(1,0)	
L2C 62>	(-49,1)	(1,0)	(1,0)	(1,0)	(1,0)	(1,0)	(1,0)	(1,0)	(1,0)	(1,0)	(1,0)	(1,0)	(1,0)	(1,0)	(1,0)	(1,0)	
L2C 63>	(1,0)	(1,0)	(1,0)	(1,0)	(1,0)	(1,0)	(1,0)	(1,0)	(1,0)	(1,0)	(1,0)	(1,0)	(1,0)	(1,0)	(1,0)	(1,0)	

DRAM Statistics
 CHANNEL 0
 RQ ROW_BUFFER_HIT:      22609  ROW_BUFFER_MISS:       2874
 DBUS_CONGESTED:      21743
 WQ ROW_BUFFER_HIT:          1  ROW_BUFFER_MISS:        211  FULL:          0

 AVG_CONGESTED_CYCLE: 6
