
*** ChampSim Multicore Out-of-Order Simulator ***

Warmup Instructions: 1000000
Simulation Instructions: 10000000
Number of CPUs: 1
LLC sets: 2048
LLC ways: 16
Off-chip DRAM Size: 4096 MB Channels: 1 Width: 64-bit Data Rate: 3200 MT/s

CPU 0 runs /home/aniket/Desktop/sem/cs622/cs622-project/champsim/dpc3_traces/641.leela_s-800B.champsimtrace.xz
Ultra pref. initializing...
Ultra pref. initialized
Ultra pref. initializing...
Ultra pref. initialized

Warmup complete CPU 0 instructions: 1000001 cycles: 957744 (Simulation time: 0 hr 0 min 2 sec) 

Heartbeat CPU 0 instructions: 10000002 cycles: 25201630 heartbeat IPC: 0.3968 cumulative IPC: 0.371228 (Simulation time: 0 hr 0 min 24 sec) 
Finished CPU 0 instructions: 10000001 cycles: 26931452 cumulative IPC: 0.371313 (Simulation time: 0 hr 0 min 27 sec) 

CPU 0 Branch Prediction Accuracy: 84.4719% MPKI: 16.2316 Average ROB Occupancy at Mispredict: 58.7409

ChampSim completed all CPUs

Region of Interest Statistics

CPU 0 cumulative IPC: 0.371313 instructions: 10000001 cycles: 26931452
L1D TOTAL     ACCESS:    7575599  HIT:    7534037  MISS:      41562
L1D LOAD      ACCESS:    2127064  HIT:    2112841  MISS:      14223
L1D RFO       ACCESS:    1157894  HIT:    1155871  MISS:       2023
L1D PREFETCH  ACCESS:    4290641  HIT:    4265325  MISS:      25316
L1D WRITEBACK ACCESS:          0  HIT:          0  MISS:          0
L1D PREFETCH  REQUESTED:   36621269  ISSUED:   33891700  USEFUL:      11541  USELESS:      18780
L1D AVERAGE MISS LATENCY: 98751.1 cycles
L1I TOTAL     ACCESS:    1925792  HIT:    1925271  MISS:        521
L1I LOAD      ACCESS:    1925792  HIT:    1925271  MISS:        521
L1I RFO       ACCESS:          0  HIT:          0  MISS:          0
L1I PREFETCH  ACCESS:          0  HIT:          0  MISS:          0
L1I WRITEBACK ACCESS:          0  HIT:          0  MISS:          0
L1I PREFETCH  REQUESTED:          0  ISSUED:          0  USEFUL:          0  USELESS:          0
L1I AVERAGE MISS LATENCY: 11.5086 cycles
L2C TOTAL     ACCESS:     239598  HIT:     229544  MISS:      10054
L2C LOAD      ACCESS:      14480  HIT:      13770  MISS:        710
L2C RFO       ACCESS:       2020  HIT:       1997  MISS:         23
L2C PREFETCH  ACCESS:     218469  HIT:     209149  MISS:       9320
L2C WRITEBACK ACCESS:       4629  HIT:       4628  MISS:          1
L2C PREFETCH  REQUESTED:     631982  ISSUED:     422490  USEFUL:       2213  USELESS:       8541
L2C AVERAGE MISS LATENCY: 112.571 cycles
LLC TOTAL     ACCESS:      10297  HIT:       5640  MISS:       4657
LLC LOAD      ACCESS:        710  HIT:        383  MISS:        327
LLC RFO       ACCESS:         23  HIT:         23  MISS:          0
LLC PREFETCH  ACCESS:       9320  HIT:       4990  MISS:       4330
LLC WRITEBACK ACCESS:        244  HIT:        244  MISS:          0
LLC PREFETCH  REQUESTED:          0  ISSUED:          0  USEFUL:        199  USELESS:          0
LLC AVERAGE MISS LATENCY: 178.196 cycles
Major fault: 0 Minor fault: 342

L1D -512>	(1,14)	(-119,2)	(-21,2)	(-1,39)	(0,116)	(2,6)	(-8,22)	(3,2)	(-28,2)	(-186,1)	(11,1)	(8,1)	(-24,1)	(-245,1)	(267,1)	(21,1)	
L1D -511>	(1,13)	(21,1)	(1,0)	(1,0)	(1,0)	(1,0)	(1,0)	(1,0)	(1,0)	(1,0)	(1,0)	(1,0)	(1,0)	(1,0)	(1,0)	(1,0)	
L1D -510>	(184,1)	(11,1)	(183,1)	(1,0)	(1,0)	(1,0)	(1,0)	(1,0)	(1,0)	(1,0)	(1,0)	(1,0)	(1,0)	(1,0)	(1,0)	(1,0)	
L1D -509>	(10,9)	(288,4)	(11,1)	(509,1)	(1,0)	(1,0)	(1,0)	(1,0)	(1,0)	(1,0)	(1,0)	(1,0)	(1,0)	(1,0)	(1,0)	(1,0)	
L1D -508>	(282,6)	(10,12)	(176,1)	(508,1)	(1,0)	(1,0)	(1,0)	(1,0)	(1,0)	(1,0)	(1,0)	(1,0)	(1,0)	(1,0)	(1,0)	(1,0)	
L1D -507>	(10,6)	(281,1)	(1,0)	(1,0)	(1,0)	(1,0)	(1,0)	(1,0)	(1,0)	(1,0)	(1,0)	(1,0)	(1,0)	(1,0)	(1,0)	(1,0)	
L1D -506>	(289,1)	(506,1)	(1,0)	(1,0)	(1,0)	(1,0)	(1,0)	(1,0)	(1,0)	(1,0)	(1,0)	(1,0)	(1,0)	(1,0)	(1,0)	(1,0)	
L1D -505>	(184,1)	(284,1)	(505,3)	(394,1)	(1,0)	(1,0)	(1,0)	(1,0)	(1,0)	(1,0)	(1,0)	(1,0)	(1,0)	(1,0)	(1,0)	(1,0)	
L1D -504>	(181,1)	(11,3)	(504,2)	(183,1)	(10,1)	(283,2)	(288,2)	(173,1)	(278,2)	(394,1)	(1,0)	(1,0)	(1,0)	(1,0)	(1,0)	(1,0)	
L1D -503>	(279,1)	(11,4)	(392,1)	(276,1)	(10,1)	(282,2)	(503,1)	(497,1)	(1,0)	(1,0)	(1,0)	(1,0)	(1,0)	(1,0)	(1,0)	(1,0)	
L1D -502>	(281,6)	(11,1)	(286,2)	(502,2)	(10,6)	(0,1)	(1,0)	(1,0)	(1,0)	(1,0)	(1,0)	(1,0)	(1,0)	(1,0)	(1,0)	(1,0)	
L1D -501>	(180,1)	(10,2)	(285,1)	(495,1)	(280,4)	(501,1)	(391,2)	(169,1)	(170,1)	(496,1)	(379,1)	(1,0)	(1,0)	(1,0)	(1,0)	(1,0)	
L1D -500>	(279,3)	(10,1)	(284,1)	(288,1)	(11,1)	(273,2)	(384,1)	(278,1)	(274,2)	(495,1)	(169,1)	(1,0)	(1,0)	(1,0)	(1,0)	(1,0)	
L1D -499>	(10,3)	(0,1)	(11,1)	(181,1)	(388,1)	(283,1)	(277,1)	(1,0)	(1,0)	(1,0)	(1,0)	(1,0)	(1,0)	(1,0)	(1,0)	(1,0)	
L1D -498>	(282,3)	(10,3)	(182,1)	(286,1)	(498,3)	(277,1)	(387,2)	(-1,1)	(1,0)	(1,0)	(1,0)	(1,0)	(1,0)	(1,0)	(1,0)	(1,0)	
L1D -497>	(176,1)	(281,2)	(497,2)	(282,2)	(386,2)	(387,2)	(287,1)	(11,1)	(1,0)	(1,0)	(1,0)	(1,0)	(1,0)	(1,0)	(1,0)	(1,0)	
L1D -496>	(280,1)	(386,1)	(180,1)	(385,2)	(285,1)	(1,0)	(1,0)	(1,0)	(1,0)	(1,0)	(1,0)	(1,0)	(1,0)	(1,0)	(1,0)	(1,0)	
L1D -495>	(21,1)	(10,2)	(278,1)	(279,1)	(1,0)	(1,0)	(1,0)	(1,0)	(1,0)	(1,0)	(1,0)	(1,0)	(1,0)	(1,0)	(1,0)	(1,0)	
L1D -494>	(10,2)	(21,1)	(384,1)	(494,1)	(1,0)	(1,0)	(1,0)	(1,0)	(1,0)	(1,0)	(1,0)	(1,0)	(1,0)	(1,0)	(1,0)	(1,0)	
L1D -493>	(287,1)	(11,1)	(277,1)	(493,6)	(282,1)	(181,1)	(276,1)	(1,0)	(1,0)	(1,0)	(1,0)	(1,0)	(1,0)	(1,0)	(1,0)	(1,0)	
L1D -492>	(11,2)	(10,3)	(181,1)	(176,1)	(287,1)	(286,1)	(281,1)	(492,3)	(282,1)	(1,0)	(1,0)	(1,0)	(1,0)	(1,0)	(1,0)	(1,0)	
L1D -491>	(280,1)	(281,3)	(11,3)	(10,2)	(491,3)	(380,2)	(180,2)	(175,1)	(170,1)	(1,0)	(1,0)	(1,0)	(1,0)	(1,0)	(1,0)	(1,0)	
L1D -490>	(174,2)	(490,2)	(11,1)	(379,1)	(1,0)	(1,0)	(1,0)	(1,0)	(1,0)	(1,0)	(1,0)	(1,0)	(1,0)	(1,0)	(1,0)	(1,0)	
L1D -489>	(10,1)	(173,1)	(489,2)	(172,1)	(279,1)	(1,0)	(1,0)	(1,0)	(1,0)	(1,0)	(1,0)	(1,0)	(1,0)	(1,0)	(1,0)	(1,0)	
L1D -488>	(282,1)	(488,4)	(11,3)	(281,1)	(1,0)	(1,0)	(1,0)	(1,0)	(1,0)	(1,0)	(1,0)	(1,0)	(1,0)	(1,0)	(1,0)	(1,0)	
L1D -487>	(11,2)	(270,1)	(172,3)	(487,3)	(1,0)	(1,0)	(1,0)	(1,0)	(1,0)	(1,0)	(1,0)	(1,0)	(1,0)	(1,0)	(1,0)	(1,0)	
L1D -486>	(11,1)	(282,1)	(376,3)	(276,1)	(281,3)	(486,4)	(1,0)	(1,0)	(1,0)	(1,0)	(1,0)	(1,0)	(1,0)	(1,0)	(1,0)	(1,0)	
L1D -485>	(-11,1)	(280,1)	(285,1)	(279,1)	(175,1)	(485,1)	(10,1)	(179,1)	(1,0)	(1,0)	(1,0)	(1,0)	(1,0)	(1,0)	(1,0)	(1,0)	
L1D -484>	(284,1)	(374,2)	(174,1)	(179,1)	(484,1)	(173,1)	(1,0)	(1,0)	(1,0)	(1,0)	(1,0)	(1,0)	(1,0)	(1,0)	(1,0)	(1,0)	
L1D -483>	(171,1)	(10,2)	(173,1)	(21,1)	(276,1)	(1,0)	(1,0)	(1,0)	(1,0)	(1,0)	(1,0)	(1,0)	(1,0)	(1,0)	(1,0)	(1,0)	
L1D -482>	(276,3)	(482,2)	(371,5)	(11,2)	(271,1)	(1,0)	(1,0)	(1,0)	(1,0)	(1,0)	(1,0)	(1,0)	(1,0)	(1,0)	(1,0)	(1,0)	
L1D -481>	(275,2)	(11,1)	(481,1)	(171,1)	(10,2)	(181,1)	(276,1)	(1,0)	(1,0)	(1,0)	(1,0)	(1,0)	(1,0)	(1,0)	(1,0)	(1,0)	
L1D -480>	(169,1)	(370,1)	(10,2)	(1,0)	(1,0)	(1,0)	(1,0)	(1,0)	(1,0)	(1,0)	(1,0)	(1,0)	(1,0)	(1,0)	(1,0)	(1,0)	
L1D -479>	(273,1)	(258,1)	(169,1)	(368,1)	(1,0)	(1,0)	(1,0)	(1,0)	(1,0)	(1,0)	(1,0)	(1,0)	(1,0)	(1,0)	(1,0)	(1,0)	
L1D -478>	(167,1)	(272,1)	(478,1)	(267,1)	(1,0)	(1,0)	(1,0)	(1,0)	(1,0)	(1,0)	(1,0)	(1,0)	(1,0)	(1,0)	(1,0)	(1,0)	
L1D -477>	(10,4)	(289,1)	(279,1)	(166,1)	(-9,1)	(272,3)	(477,2)	(367,1)	(1,0)	(1,0)	(1,0)	(1,0)	(1,0)	(1,0)	(1,0)	(1,0)	
L1D -476>	(271,3)	(166,3)	(476,3)	(11,1)	(10,2)	(1,0)	(1,0)	(1,0)	(1,0)	(1,0)	(1,0)	(1,0)	(1,0)	(1,0)	(1,0)	(1,0)	
L1D -475>	(266,1)	(10,3)	(11,1)	(180,1)	(265,1)	(365,1)	(133,1)	(169,1)	(1,0)	(1,0)	(1,0)	(1,0)	(1,0)	(1,0)	(1,0)	(1,0)	
L1D -474>	(474,1)	(364,1)	(475,1)	(1,0)	(1,0)	(1,0)	(1,0)	(1,0)	(1,0)	(1,0)	(1,0)	(1,0)	(1,0)	(1,0)	(1,0)	(1,0)	
L1D -473>	(473,2)	(207,1)	(272,1)	(318,1)	(412,1)	(1,0)	(1,0)	(1,0)	(1,0)	(1,0)	(1,0)	(1,0)	(1,0)	(1,0)	(1,0)	(1,0)	
L1D -472>	(301,1)	(21,1)	(472,1)	(266,1)	(1,0)	(1,0)	(1,0)	(1,0)	(1,0)	(1,0)	(1,0)	(1,0)	(1,0)	(1,0)	(1,0)	(1,0)	
L1D -471>	(265,1)	(11,2)	(1,0)	(1,0)	(1,0)	(1,0)	(1,0)	(1,0)	(1,0)	(1,0)	(1,0)	(1,0)	(1,0)	(1,0)	(1,0)	(1,0)	
L1D -470>	(170,1)	(10,1)	(1,0)	(1,0)	(1,0)	(1,0)	(1,0)	(1,0)	(1,0)	(1,0)	(1,0)	(1,0)	(1,0)	(1,0)	(1,0)	(1,0)	
L1D -469>	(170,1)	(164,1)	(1,0)	(1,0)	(1,0)	(1,0)	(1,0)	(1,0)	(1,0)	(1,0)	(1,0)	(1,0)	(1,0)	(1,0)	(1,0)	(1,0)	
L1D -468>	(269,1)	(333,1)	(206,1)	(162,1)	(1,0)	(1,0)	(1,0)	(1,0)	(1,0)	(1,0)	(1,0)	(1,0)	(1,0)	(1,0)	(1,0)	(1,0)	
L1D -467>	(11,10)	(395,3)	(289,43)	(10,7)	(279,4)	(1,7)	(410,9)	(400,1)	(284,3)	(21,6)	(399,6)	(405,3)	(467,3)	(165,1)	(55,1)	(0,3)	
L1D -466>	(274,1)	(8,1)	(388,3)	(272,1)	(120,1)	(10,18)	(1,4)	(283,5)	(466,1)	(288,15)	(278,5)	(101,1)	(277,2)	(261,1)	(11,2)	(404,1)	
L1D -465>	(11,8)	(260,1)	(398,1)	(288,6)	(323,1)	(465,1)	(273,1)	(155,1)	(276,1)	(277,1)	(355,1)	(433,1)	(104,1)	(0,1)	(1,0)	(1,0)	
L1D -464>	(1,2)	(398,5)	(288,7)	(11,4)	(287,7)	(10,1)	(0,3)	(400,2)	(435,1)	(413,2)	(277,1)	(464,1)	(282,1)	(1,0)	(1,0)	(1,0)	
L1D -463>	(21,7)	(282,7)	(1,9)	(287,89)	(463,3)	(0,1)	(387,3)	(11,4)	(-1,1)	(10,6)	(301,1)	(254,1)	(107,1)	(122,1)	(50,1)	(331,1)	
L1D -462>	(462,6)	(0,2)	(11,4)	(251,1)	(276,3)	(286,74)	(10,4)	(287,21)	(252,1)	(386,1)	(275,9)	(16,1)	(21,5)	(281,1)	(411,1)	(297,1)	
L1D -461>	(4,1)	(391,1)	(286,10)	(11,3)	(283,1)	(461,1)	(10,4)	(248,1)	(385,1)	(380,1)	(275,5)	(280,4)	(0,1)	(263,1)	(1,1)	(402,2)	
L1D -460>	(280,2)	(385,3)	(1,77)	(11,8)	(285,12)	(10,7)	(56,1)	(35,1)	(460,1)	(391,1)	(386,1)	(401,1)	(390,2)	(0,2)	(263,1)	(262,1)	
L1D -459>	(1,3)	(274,24)	(280,6)	(10,13)	(279,3)	(275,5)	(285,92)	(21,4)	(396,3)	(395,16)	(384,1)	(11,5)	(459,2)	(422,1)	(290,1)	(0,1)	
L1D -458>	(279,11)	(458,6)	(284,76)	(274,8)	(384,6)	(0,8)	(395,6)	(10,8)	(47,2)	(9,3)	(57,1)	(289,1)	(390,1)	(21,3)	(1,2)	(-5,1)	
L1D -457>	(457,16)	(-4,2)	(1,2)	(279,2)	(11,9)	(97,2)	(262,1)	(10,13)	(459,1)	(284,16)	(-9,1)	(273,5)	(62,1)	(-2,2)	(274,2)	(57,1)	
L1D -456>	(11,24)	(273,14)	(278,5)	(383,2)	(283,38)	(238,1)	(6,1)	(394,5)	(399,2)	(-3,1)	(106,1)	(256,1)	(236,1)	(241,2)	(109,1)	(98,2)	
L1D -455>	(252,1)	(272,4)	(11,4)	(94,1)	(455,3)	(96,1)	(10,3)	(242,1)	(261,1)	(58,1)	(0,1)	(283,1)	(383,1)	(54,1)	(95,1)	(437,1)	
L1D -454>	(282,38)	(34,1)	(50,1)	(10,4)	(265,2)	(272,4)	(425,1)	(454,2)	(1,0)	(1,0)	(1,0)	(1,0)	(1,0)	(1,0)	(1,0)	(1,0)	
L1D -453>	(271,12)	(282,28)	(260,1)	(21,1)	(272,5)	(10,1)	(1,1)	(393,1)	(11,4)	(392,5)	(424,1)	(381,1)	(1,0)	(1,0)	(1,0)	(1,0)	
L1D -452>	(452,5)	(281,46)	(402,2)	(270,3)	(1,40)	(10,7)	(11,3)	(392,2)	(17,1)	(371,3)	(420,1)	(397,2)	(32,1)	(403,1)	(260,1)	(408,1)	
L1D -451>	(451,6)	(11,3)	(276,2)	(281,27)	(393,1)	(270,4)	(277,1)	(68,1)	(64,2)	(5,2)	(0,4)	(380,2)	(10,3)	(-15,1)	(1,5)	(21,1)	
L1D -450>	(275,4)	(1,4)	(439,2)	(280,50)	(391,4)	(450,9)	(386,3)	(281,12)	(5,3)	(-2,2)	(270,9)	(267,1)	(380,1)	(374,1)	(429,1)	(21,3)	
L1D -449>	(280,42)	(451,4)	(-10,3)	(11,3)	(1,6)	(269,5)	(449,9)	(448,1)	(396,5)	(0,2)	(21,2)	(41,1)	(390,2)	(30,1)	(-9,1)	(242,1)	
L1D -448>	(0,19)	(1,3)	(279,57)	(448,8)	(10,7)	(280,66)	(390,5)	(21,7)	(269,9)	(400,3)	(447,3)	(268,3)	(5,2)	(4,1)	(80,1)	(385,4)	
L1D -447>	(11,5)	(447,8)	(436,3)	(-1,7)	(273,1)	(279,43)	(0,5)	(437,4)	(446,3)	(263,1)	(268,12)	(-11,2)	(235,1)	(85,1)	(43,1)	(-5,1)	
L1D -446>	(2,5)	(273,7)	(436,5)	(10,6)	(384,1)	(0,1)	(1,4)	(435,11)	(445,6)	(446,10)	(335,1)	(278,13)	(4,22)	(279,12)	(447,2)	(-1,4)	
L1D -445>	(1,12)	(4,59)	(-5,7)	(446,2)	(278,68)	(267,2)	(445,9)	(444,1)	(248,1)	(285,1)	(434,5)	(-12,1)	(435,2)	(-22,2)	(279,1)	(425,1)	
L1D -444>	(4,52)	(444,9)	(277,34)	(445,2)	(-1,5)	(1,34)	(-22,2)	(443,3)	(101,1)	(256,1)	(0,4)	(434,2)	(2,10)	(255,1)	(424,3)	(36,1)	
L1D -443>	(277,111)	(421,2)	(1,7)	(368,2)	(4,46)	(-21,47)	(283,1)	(0,9)	(5,6)	(-12,1)	(266,2)	(432,4)	(433,9)	(422,1)	(170,1)	(146,1)	
L1D -442>	(1,32)	(272,3)	(11,16)	(0,6)	(4,41)	(2,3)	(5,1)	(16,4)	(276,22)	(277,25)	(-1,3)	(10,3)	(442,6)	(161,2)	(431,3)	(-21,4)	
L1D -441>	(1,35)	(441,16)	(376,2)	(-21,5)	(271,3)	(276,45)	(4,51)	(430,3)	(-5,4)	(-22,4)	(366,2)	(386,12)	(-1,3)	(10,19)	(279,2)	(442,1)	
L1D -440>	(1,53)	(0,3)	(4,17)	(386,4)	(3,3)	(276,3)	(275,16)	(392,2)	(429,2)	(419,12)	(380,3)	(391,1)	(-22,9)	(359,5)	(430,1)	(156,1)	
L1D -439>	(1,66)	(438,6)	(440,1)	(275,31)	(4,27)	(439,6)	(418,6)	(-5,7)	(3,5)	(-21,10)	(419,2)	(385,3)	(10,3)	(428,4)	(0,2)	(21,7)	
L1D -438>	(1,124)	(450,1)	(437,16)	(11,8)	(4,66)	(427,4)	(-1,9)	(385,2)	(438,13)	(275,16)	(274,44)	(3,3)	(10,3)	(379,7)	(417,2)	(0,9)	
L1D -437>	(1,81)	(373,2)	(438,2)	(10,1)	(416,2)	(274,31)	(436,5)	(4,23)	(-5,1)	(437,11)	(2,4)	(426,5)	(395,4)	(384,4)	(263,1)	(268,1)	
L1D -436>	(436,9)	(280,1)	(1,112)	(446,2)	(4,36)	(16,4)	(3,8)	(2,11)	(425,7)	(0,5)	(-1,10)	(11,4)	(-22,3)	(415,39)	(143,3)	(273,4)	
L1D -435>	(424,9)	(11,26)	(1,68)	(4,36)	(2,13)	(434,8)	(436,7)	(-1,5)	(3,8)	(0,1)	(141,3)	(415,3)	(-5,5)	(425,6)	(-2,3)	(140,3)	
L1D -434>	(1,116)	(423,7)	(4,38)	(21,4)	(11,3)	(-5,6)	(137,6)	(138,5)	(-21,4)	(413,31)	(0,1)	(3,8)	(433,9)	(445,4)	(425,3)	(2,4)	
L1D -433>	(1,99)	(432,2)	(444,1)	(4,10)	(272,9)	(404,1)	(21,3)	(11,1)	(422,6)	(10,2)	(-1,2)	(412,2)	(0,1)	(423,2)	(433,1)	(382,2)	
L1D -432>	(433,4)	(1,84)	(4,2)	(-1,2)	(0,4)	(431,3)	(279,1)	(410,1)	(421,2)	(272,16)	(271,9)	(382,5)	(411,6)	(-22,1)	(-2,1)	(11,1)	
L1D -431>	(1,111)	(4,23)	(432,5)	(271,58)	(409,3)	(11,4)	(421,1)	(431,3)	(21,2)	(10,8)	(3,4)	(266,1)	(420,9)	(430,6)	(0,6)	(410,3)	
L1D -430>	(1,93)	(3,6)	(2,3)	(0,8)	(430,7)	(429,6)	(-1,2)	(4,30)	(270,17)	(419,2)	(10,4)	(11,1)	(431,4)	(420,1)	(21,1)	(271,14)	
L1D -429>	(3,5)	(-1,4)	(0,9)	(270,14)	(429,4)	(1,115)	(408,22)	(419,24)	(418,25)	(430,1)	(4,10)	(11,1)	(439,1)	(2,6)	(428,5)	(-22,1)	
L1D -428>	(1,123)	(2,3)	(4,10)	(269,2)	(3,6)	(417,3)	(418,14)	(407,18)	(10,1)	(427,2)	(-6,2)	(-11,1)	(0,8)	(438,1)	(428,2)	(397,1)	
L1D -427>	(417,7)	(-3,3)	(437,1)	(1,109)	(0,6)	(4,33)	(7,1)	(428,3)	(438,1)	(416,3)	(269,31)	(2,6)	(-5,1)	(406,1)	(353,3)	(3,1)	
L1D -426>	(1,70)	(427,1)	(425,1)	(426,1)	(405,6)	(3,3)	(5,0)	(379,0)	(-24,0)	(4,5)	(268,2)	(-21,0)	(0,6)	(283,0)	(404,1)	(-3,5)	
L1D -425>	(2,7)	(1,104)	(16,2)	(268,8)	(414,19)	(436,2)	(4,6)	(-21,1)	(435,2)	(426,3)	(403,1)	(404,3)	(0,6)	(3,8)	(425,1)	(415,4)	
L1D -424>	(378,3)	(1,119)	(-11,2)	(-3,3)	(413,11)	(425,11)	(423,2)	(403,11)	(404,3)	(2,4)	(4,6)	(-1,1)	(414,13)	(-21,2)	(267,8)	(434,4)	
L1D -423>	(1,117)	(4,11)	(412,13)	(434,5)	(402,25)	(0,9)	(3,10)	(433,3)	(411,4)	(-6,2)	(267,6)	(10,4)	(11,3)	(422,3)	(2,7)	(413,4)	
L1D -422>	(1,99)	(401,10)	(421,2)	(4,7)	(274,2)	(10,2)	(-1,1)	(21,2)	(411,4)	(0,13)	(400,4)	(3,7)	(433,2)	(266,14)	(2,6)	(-3,4)	
L1D -421>	(432,5)	(410,26)	(376,3)	(382,6)	(421,7)	(422,3)	(1,114)	(2,4)	(0,3)	(4,10)	(400,29)	(266,33)	(377,3)	(411,13)	(-22,8)	(-3,1)	
L1D -420>	(1,76)	(420,2)	(0,3)	(10,1)	(-3,9)	(409,2)	(-5,2)	(410,2)	(288,1)	(399,14)	(260,0)	(4,5)	(3,5)	(430,8)	(265,7)	(2,5)	
L1D -419>	(254,3)	(10,1)	(11,3)	(1,102)	(408,9)	(429,14)	(0,4)	(4,25)	(-22,2)	(398,27)	(-3,5)	(419,13)	(2,9)	(287,3)	(265,12)	(430,8)	
L1D -418>	(419,2)	(388,1)	(265,10)	(1,102)	(0,4)	(407,5)	(2,4)	(429,6)	(428,4)	(-21,1)	(264,7)	(3,1)	(398,1)	(397,14)	(4,7)	(418,4)	
L1D -417>	(264,24)	(0,2)	(222,1)	(1,79)	(4,14)	(428,4)	(406,4)	(427,4)	(2,4)	(385,1)	(3,1)	(-22,1)	(-5,1)	(11,3)	(417,1)	(21,1)	
L1D -416>	(426,4)	(384,1)	(4,29)	(395,7)	(374,1)	(1,112)	(405,3)	(417,5)	(416,6)	(353,1)	(379,3)	(263,35)	(406,1)	(0,4)	(3,3)	(-22,3)	
L1D -415>	(0,16)	(426,4)	(415,3)	(-7,1)	(1,65)	(416,4)	(425,6)	(3,1)	(393,9)	(404,5)	(4,11)	(285,1)	(263,9)	(277,2)	(395,0)	(394,4)	
L1D -414>	(288,5)	(0,7)	(425,2)	(287,1)	(1,68)	(-21,3)	(4,8)	(2,1)	(404,1)	(393,17)	(11,4)	(262,6)	(217,1)	(277,1)	(424,3)	(403,2)	
L1D -413>	(0,25)	(393,6)	(424,6)	(4,25)	(1,99)	(402,10)	(392,30)	(2,6)	(391,5)	(414,7)	(423,11)	(10,4)	(282,3)	(7,1)	(-1,3)	(262,17)	
L1D -412>	(1,120)	(0,12)	(423,4)	(391,14)	(2,3)	(4,13)	(422,9)	(401,4)	(-3,1)	(3,2)	(16,1)	(392,1)	(-5,1)	(412,2)	(10,1)	(261,13)	
L1D -411>	(0,17)	(411,5)	(21,1)	(412,4)	(1,87)	(390,9)	(256,1)	(422,6)	(-1,2)	(400,5)	(4,27)	(389,1)	(421,7)	(261,27)	(289,1)	(-7,1)	
L1D -410>	(4,18)	(410,3)	(0,11)	(388,5)	(1,68)	(256,1)	(11,1)	(260,11)	(261,8)	(-10,1)	(411,4)	(2,2)	(399,5)	(389,18)	(288,8)	(-1,1)	
L1D -409>	(409,8)	(0,23)	(260,27)	(399,1)	(-5,1)	(1,85)	(398,4)	(408,1)	(419,10)	(4,24)	(410,4)	(11,4)	(277,3)	(3,6)	(2,13)	(7,2)	
L1D -408>	(0,34)	(-3,1)	(3,6)	(359,4)	(408,12)	(1,114)	(418,7)	(2,7)	(-1,2)	(387,71)	(397,10)	(4,30)	(388,5)	(281,4)	(259,31)	(419,11)	
L1D -407>	(7,3)	(259,7)	(1,126)	(2,7)	(4,23)	(418,4)	(-5,8)	(0,4)	(6,2)	(417,6)	(282,4)	(386,12)	(275,2)	(-3,3)	(49,1)	(11,4)	
L1D -406>	(1,101)	(406,6)	(0,14)	(285,7)	(385,13)	(4,31)	(417,4)	(405,2)	(258,28)	(395,11)	(11,7)	(396,8)	(10,3)	(-35,1)	(416,2)	(273,1)	
L1D -405>	(0,10)	(1,93)	(406,3)	(-21,5)	(-12,1)	(289,2)	(258,13)	(384,8)	(-11,2)	(2,3)	(273,3)	(416,4)	(394,5)	(11,12)	(284,2)	(456,3)	
L1D -404>	(404,0)	(393,5)	(4,6)	(1,78)	(257,3)	(383,10)	(11,8)	(414,6)	(0,6)	(10,2)	(415,2)	(394,1)	(425,0)	(-10,2)	(2,1)	(3,3)	
L1D -403>	(0,19)	(4,27)	(1,118)	(404,5)	(413,16)	(382,39)	(414,11)	(24,1)	(393,5)	(-1,6)	(288,4)	(-3,5)	(257,26)	(11,5)	(403,3)	(287,32)	
L1D -402>	(0,16)	(4,19)	(270,1)	(1,93)	(391,5)	(10,4)	(286,16)	(412,7)	(381,25)	(-1,2)	(287,3)	(276,7)	(3,6)	(256,8)	(413,6)	(281,6)	
L1D -401>	(0,6)	(401,4)	(-21,6)	(-2,2)	(2,2)	(1,68)	(285,10)	(256,11)	(16,1)	(380,8)	(412,6)	(390,4)	(402,1)	(4,5)	(11,7)	(411,5)	
L1D -400>	(379,9)	(0,8)	(284,6)	(390,2)	(-10,1)	(256,3)	(400,2)	(255,11)	(-3,1)	(1,73)	(411,3)	(11,9)	(4,12)	(21,1)	(278,6)	(410,4)	
L1D -399>	(1,98)	(283,12)	(11,6)	(400,6)	(289,6)	(7,1)	(409,5)	(0,17)	(288,34)	(465,3)	(410,6)	(388,10)	(-3,5)	(255,43)	(4,15)	(378,16)	
L1D -398>	(0,13)	(3,4)	(-3,2)	(398,3)	(408,7)	(277,4)	(287,4)	(1,108)	(377,19)	(271,3)	(254,25)	(349,2)	(288,4)	(2,3)	(4,13)	(282,3)	
L1D -397>	(276,3)	(0,9)	(277,2)	(408,2)	(286,6)	(254,10)	(386,6)	(4,9)	(387,2)	(10,8)	(1,98)	(281,7)	(11,11)	(376,32)	(398,3)	(353,2)	
L1D -396>	(285,12)	(2,4)	(10,1)	(280,9)	(-22,6)	(1,104)	(375,21)	(4,12)	(407,2)	(385,5)	(397,5)	(0,5)	(406,4)	(253,4)	(-10,4)	(11,6)	
L1D -395>	(10,1)	(0,14)	(1,93)	(285,13)	(253,39)	(-21,2)	(-3,5)	(384,6)	(4,16)	(284,4)	(274,2)	(406,9)	(405,8)	(278,2)	(11,9)	(374,14)	
L1D -394>	(1,106)	(0,8)	(373,29)	(2,5)	(394,3)	(7,1)	(253,13)	(274,2)	(278,6)	(404,3)	(11,7)	(383,6)	(10,4)	(283,4)	(273,4)	(288,18)	
L1D -393>	(1,68)	(277,10)	(372,16)	(404,0)	(288,20)	(3,4)	(287,9)	(403,6)	(11,3)	(0,7)	(271,1)	(252,7)	(272,1)	(10,6)	(-11,2)	(283,4)	
L1D -392>	(4,10)	(381,5)	(0,12)	(281,12)	(402,7)	(287,9)	(282,10)	(11,11)	(-11,2)	(371,18)	(27,1)	(392,2)	(1,73)	(-21,3)	(276,16)	(-10,5)	
L1D -391>	(1,80)	(281,5)	(0,12)	(251,5)	(286,7)	(11,5)	(285,3)	(401,1)	(370,10)	(-21,2)	(280,7)	(380,5)	(4,4)	(275,11)	(369,4)	(402,3)	
L1D -390>	(3,1)	(4,14)	(11,3)	(10,4)	(0,5)	(1,78)	(274,5)	(251,1)	(2,2)	(400,4)	(379,4)	(369,12)	(280,5)	(285,21)	(279,5)	(401,5)	
L1D -389>	(274,1)	(283,16)	(399,5)	(1,107)	(272,6)	(4,10)	(368,29)	(279,15)	(250,8)	(268,9)	(11,6)	(278,12)	(0,11)	(273,8)	(-10,5)	(-11,6)	
L1D -388>	(288,11)	(2,6)	(282,14)	(398,6)	(1,123)	(377,8)	(454,4)	(249,7)	(272,10)	(399,9)	(-10,11)	(4,16)	(283,15)	(367,8)	(0,15)	(388,1)	
L1D -387>	(-11,5)	(387,5)	(0,15)	(249,18)	(1,113)	(271,14)	(277,5)	(11,7)	(276,8)	(366,26)	(287,7)	(4,16)	(272,1)	(397,5)	(408,2)	(282,10)	
L1D -386>	(396,3)	(0,4)	(375,5)	(264,1)	(275,3)	(270,9)	(4,4)	(365,14)	(1,78)	(248,3)	(281,4)	(276,7)	(387,4)	(280,6)	(386,3)	(11,3)	
L1D -385>	(10,7)	(364,18)	(280,22)	(0,18)	(274,9)	(386,15)	(1,120)	(262,1)	(2,6)	(248,33)	(279,11)	(352,2)	(264,8)	(395,12)	(285,11)	(4,16)	
L1D -384>	(247,19)	(363,12)	(0,16)	(4,8)	(10,10)	(279,19)	(263,8)	(-11,6)	(-22,2)	(394,7)	(1,75)	(142,3)	(273,6)	(373,8)	(384,3)	(268,2)	
L1D -383>	(-21,6)	(2,2)	(1,101)	(11,9)	(0,11)	(272,3)	(10,8)	(278,10)	(283,4)	(362,25)	(4,6)	(361,5)	(267,13)	(372,5)	(261,2)	(247,23)	
L1D -382>	(0,10)	(2,10)	(276,3)	(246,17)	(392,7)	(282,3)	(11,10)	(393,7)	(383,4)	(1,120)	(247,13)	(10,1)	(361,16)	(4,16)	(272,8)	(266,10)	
L1D -381>	(360,23)	(0,22)	(-22,10)	(4,6)	(270,14)	(-21,1)	(10,15)	(246,37)	(-10,20)	(1,111)	(265,7)	(271,16)	(391,14)	(370,15)	(-1,6)	(286,5)	
L1D -380>	(274,7)	(264,6)	(286,9)	(1,112)	(275,10)	(-11,9)	(16,1)	(2,7)	(369,4)	(270,11)	(0,14)	(359,10)	(391,11)	(278,3)	(390,11)	(4,10)	
L1D -379>	(279,1)	(263,20)	(368,10)	(268,3)	(274,5)	(358,26)	(-22,9)	(269,6)	(1,107)	(278,9)	(2,13)	(-11,8)	(-21,7)	(0,11)	(390,4)	(4,10)	
L1D -378>	(357,11)	(273,8)	(245,15)	(-21,6)	(1,107)	(0,5)	(2,9)	(-3,4)	(379,3)	(7,1)	(272,6)	(267,6)	(262,11)	(244,3)	(4,8)	(11,8)	
L1D -377>	(11,9)	(256,7)	(286,1)	(1,102)	(356,13)	(-3,8)	(244,9)	(-11,5)	(10,11)	(266,2)	(272,12)	(388,5)	(0,16)	(277,12)	(261,9)	(282,2)	
L1D -376>	(10,9)	(0,9)	(-5,1)	(355,13)	(-11,7)	(265,2)	(11,6)	(-10,8)	(4,3)	(386,10)	(1,83)	(376,2)	(266,7)	(243,4)	(255,5)	(270,3)	
L1D -375>	(270,9)	(385,12)	(1,79)	(3,6)	(-1,1)	(354,13)	(2,7)	(264,5)	(243,5)	(11,4)	(-11,8)	(259,13)	(353,5)	(274,3)	(0,5)	(10,8)	
L1D -374>	(0,9)	(-22,8)	(384,5)	(-5,1)	(4,13)	(353,20)	(258,6)	(-21,3)	(363,8)	(-3,3)	(1,117)	(2,16)	(10,2)	(269,19)	(385,9)	(242,19)	
L1D -373>	(242,10)	(254,3)	(352,14)	(0,1)	(1,116)	(2,9)	(279,2)	(383,8)	(373,3)	(284,2)	(262,2)	(11,11)	(-8,3)	(10,8)	(-22,6)	(267,4)	
L1D -372>	(0,10)	(256,8)	(261,11)	(-10,4)	(-3,2)	(351,18)	(241,6)	(10,3)	(11,5)	(382,5)	(-21,4)	(356,1)	(1,86)	(2,11)	(4,4)	(-11,1)	
L1D -371>	(350,22)	(241,8)	(261,23)	(2,8)	(0,24)	(-11,22)	(266,32)	(349,1)	(10,21)	(11,10)	(4,7)	(1,127)	(255,31)	(-10,19)	(360,7)	(272,4)	
L1D -370>	(4,6)	(265,16)	(380,13)	(264,4)	(0,11)	(11,13)	(254,6)	(2,13)	(359,1)	(-11,19)	(137,6)	(-10,12)	(10,25)	(269,3)	(259,3)	(1,99)	
L1D -369>	(-11,11)	(252,6)	(11,3)	(358,5)	(253,9)	(264,25)	(348,20)	(259,5)	(1,77)	(-22,10)	(0,9)	(280,9)	(138,1)	(4,4)	(10,10)	(2,6)	
L1D -368>	(-22,3)	(11,9)	(-21,2)	(252,12)	(-3,5)	(263,5)	(4,5)	(379,12)	(251,7)	(1,99)	(240,8)	(0,12)	(262,4)	(347,44)	(247,4)	(2,5)	
L1D -367>	(11,11)	(257,7)	(1,102)	(0,13)	(-10,9)	(256,7)	(4,9)	(261,5)	(346,3)	(239,40)	(262,9)	(357,1)	(377,10)	(10,16)	(-11,10)	(272,21)	
L1D -366>	(4,1)	(-22,11)	(261,30)	(366,4)	(255,18)	(376,10)	(-21,6)	(256,13)	(271,14)	(276,3)	(0,17)	(1,76)	(250,4)	(-10,10)	(-11,18)	(238,3)	
L1D -365>	(261,6)	(-1,7)	(255,8)	(249,19)	(260,18)	(254,19)	(259,15)	(-11,25)	(-21,25)	(238,41)	(10,11)	(1,95)	(376,1)	(375,16)	(0,14)	(-22,4)	
L1D -364>	(2,1)	(254,4)	(374,7)	(237,4)	(258,6)	(1,101)	(-21,6)	(3,5)	(253,8)	(259,11)	(264,3)	(0,18)	(248,4)	(11,8)	(375,7)	(10,8)	
L1D -363>	(11,6)	(0,11)	(352,5)	(384,2)	(1,72)	(262,4)	(10,10)	(29,1)	(374,13)	(258,10)	(237,14)	(253,13)	(-11,7)	(247,22)	(-21,8)	(-10,11)	
L1D -362>	(252,10)	(-11,11)	(262,3)	(251,14)	(383,1)	(0,5)	(11,13)	(1,76)	(372,10)	(257,8)	(341,1)	(-21,5)	(236,14)	(237,8)	(-10,10)	(3,4)	
L1D -361>	(-22,6)	(236,24)	(361,4)	(0,12)	(261,9)	(256,9)	(11,12)	(-21,5)	(-1,4)	(250,4)	(-10,4)	(7,0)	(372,7)	(1,68)	(340,1)	(255,6)	
L1D -360>	(244,7)	(371,8)	(0,7)	(10,12)	(260,5)	(16,2)	(346,5)	(1,69)	(-11,9)	(254,5)	(270,3)	(255,3)	(235,17)	(249,15)	(370,3)	(-10,7)	
L1D -359>	(243,13)	(-22,6)	(24,1)	(0,12)	(259,18)	(10,27)	(3,4)	(254,25)	(-21,16)	(1,91)	(248,29)	(253,4)	(369,15)	(247,17)	(235,52)	(11,11)	
L1D -358>	(358,4)	(0,6)	(248,3)	(1,76)	(4,3)	(253,7)	(234,8)	(11,7)	(-11,5)	(9,3)	(2,1)	(246,9)	(247,12)	(-21,7)	(242,9)	(-10,7)	
L1D -357>	(410,1)	(1,82)	(3,57)	(-21,7)	(257,6)	(246,38)	(336,4)	(11,18)	(4,14)	(234,45)	(2,4)	(368,12)	(0,21)	(-22,8)	(252,17)	(10,20)	
L1D -356>	(377,3)	(2,121)	(4,30)	(233,3)	(1,55)	(-22,3)	(11,3)	(-10,2)	(0,21)	(10,1)	(240,7)	(426,1)	(256,1)	(-11,2)	(3,1)	(250,4)	
L1D -355>	(239,13)	(249,4)	(256,8)	(345,1)	(1,73)	(244,27)	(3,27)	(-10,11)	(245,8)	(255,9)	(-21,11)	(10,7)	(2,30)	(0,50)	(250,8)	(233,2)	
L1D -354>	(1,105)	(-21,4)	(364,1)	(370,1)	(391,1)	(-2,20)	(353,8)	(366,1)	(238,2)	(397,1)	(435,1)	(422,1)	(363,1)	(400,1)	(433,1)	(11,1)	
L1D -353>	(1,119)	(232,12)	(2,6)	(242,6)	(0,8)	(10,1)	(237,6)	(-10,7)	(11,10)	(243,2)	(353,14)	(321,1)	(21,2)	(-2,1)	(-21,2)	(248,13)	
L1D -352>	(0,127)	(-22,2)	(-2,70)	(11,4)	(1,23)	(-5,2)	(136,1)	(246,1)	(133,2)	(-11,2)	(10,5)	(145,1)	(383,2)	(-4,3)	(142,2)	(236,2)	
L1D -351>	(351,114)	(245,5)	(137,6)	(363,1)	(246,31)	(-4,125)	(226,3)	(-1,9)	(0,23)	(255,3)	(231,74)	(-10,13)	(1,111)	(10,29)	(362,14)	(361,4)	
L1D -350>	(265,2)	(0,8)	(231,5)	(234,8)	(372,1)	(255,3)	(-21,6)	(1,67)	(245,2)	(-11,4)	(11,18)	(250,1)	(230,20)	(21,1)	(10,7)	(-10,5)	
L1D -349>	(238,5)	(271,2)	(349,3)	(0,11)	(1,106)	(-11,10)	(239,5)	(-21,2)	(11,19)	(254,4)	(10,14)	(233,4)	(234,2)	(244,11)	(230,31)	(249,6)	
L1D -348>	(338,1)	(1,88)	(359,2)	(-10,20)	(-22,13)	(243,24)	(11,27)	(242,14)	(237,9)	(348,10)	(-11,15)	(241,8)	(-21,16)	(229,26)	(10,32)	(270,2)	
L1D -347>	(237,18)	(11,32)	(-21,1)	(1,97)	(242,19)	(236,17)	(240,5)	(0,22)	(323,3)	(264,7)	(229,50)	(-10,18)	(241,42)	(247,13)	(4,5)	(326,2)	
L1D -346>	(1,127)	(-63,1)	(4,0)	(166,0)	(10,1)	(235,1)	(225,0)	(-92,0)	(-10,0)	(228,0)	(241,1)	(-11,0)	(11,0)	(239,1)	(149,0)	(240,0)	
L1D -345>	(-22,1)	(-11,0)	(345,0)	(1,65)	(144,0)	(239,0)	(-8,0)	(178,0)	(145,0)	(148,0)	(-10,0)	(11,0)	(327,0)	(234,0)	(10,0)	(240,0)	
L1D -344>	(238,7)	(7,16)	(-5,21)	(-9,6)	(343,13)	(1,94)	(234,7)	(239,25)	(10,13)	(0,86)	(233,9)	(136,1)	(-11,12)	(-10,8)	(227,8)	(344,26)	
L1D -343>	(238,6)	(163,2)	(-9,1)	(227,11)	(0,22)	(-21,4)	(10,3)	(-10,3)	(-11,4)	(233,3)	(1,82)	(232,3)	(344,4)	(-22,2)	(239,1)	(153,1)	
L1D -342>	(11,23)	(337,1)	(-14,31)	(-12,21)	(353,14)	(232,30)	(242,21)	(326,6)	(-21,36)	(237,26)	(-11,22)	(231,13)	(10,30)	(3,5)	(-8,17)	(1,36)	
L1D -341>	(0,15)	(1,32)	(251,6)	(-11,30)	(2,5)	(-2,4)	(342,51)	(231,20)	(241,8)	(236,22)	(159,1)	(226,68)	(3,5)	(-10,21)	(-3,61)	(10,23)	
L1D -340>	(-21,54)	(1,92)	(11,34)	(235,14)	(340,17)	(240,5)	(225,2)	(-11,51)	(-10,30)	(230,29)	(234,12)	(229,27)	(3,5)	(-22,58)	(335,4)	(10,22)	
L1D -339>	(238,11)	(-21,9)	(3,8)	(1,43)	(-10,36)	(225,69)	(10,27)	(240,5)	(234,58)	(244,6)	(228,17)	(-11,42)	(229,16)	(249,12)	(223,1)	(239,31)	
L1D -338>	(232,16)	(238,50)	(6,1)	(225,20)	(338,23)	(3,12)	(1,40)	(10,19)	(-10,34)	(227,8)	(-11,37)	(233,51)	(-21,27)	(-7,78)	(-22,27)	(224,42)	
L1D -337>	(232,11)	(0,4)	(-22,5)	(227,5)	(10,10)	(338,82)	(1,7)	(253,2)	(-11,2)	(11,5)	(337,2)	(236,13)	(224,13)	(-21,8)	(21,1)	(237,8)	
L1D -336>	(10,1)	(1,70)	(176,1)	(-22,6)	(230,24)	(0,4)	(236,4)	(255,2)	(223,15)	(231,23)	(232,1)	(224,7)	(247,4)	(312,1)	(235,14)	(-21,6)	
L1D -335>	(256,4)	(10,33)	(229,24)	(-22,20)	(323,1)	(235,52)	(-10,18)	(1,52)	(0,8)	(175,2)	(230,93)	(-11,27)	(263,5)	(223,61)	(335,14)	(218,4)	
L1D -334>	(233,25)	(224,5)	(3,9)	(10,30)	(255,10)	(322,5)	(334,17)	(229,111)	(-10,13)	(-21,9)	(234,39)	(161,1)	(228,13)	(-11,40)	(1,49)	(0,12)	
L1D -333>	(-50,1)	(323,0)	(-11,1)	(1,7)	(333,117)	(339,0)	(-21,1)	(347,0)	(228,3)	(121,0)	(346,0)	(129,0)	(356,0)	(222,3)	(10,2)	(233,1)	
L1D -332>	(-22,2)	(11,2)	(-21,2)	(264,1)	(221,10)	(332,2)	(343,1)	(1,119)	(0,1)	(353,1)	(111,2)	(169,1)	(10,3)	(237,2)	(316,1)	(321,2)	
L1D -331>	(0,58)	(231,14)	(225,22)	(1,43)	(10,35)	(2,18)	(331,20)	(110,18)	(-22,40)	(-21,4)	(226,59)	(246,15)	(342,18)	(253,10)	(115,1)	(-11,39)	
L1D -330>	(-21,4)	(330,100)	(11,2)	(187,1)	(2,27)	(0,12)	(329,4)	(225,6)	(224,9)	(1,39)	(-19,8)	(-2,4)	(345,1)	(112,1)	(-3,0)	(-11,2)	
L1D -329>	(229,4)	(224,31)	(1,122)	(223,24)	(-11,25)	(11,11)	(329,18)	(2,11)	(187,1)	(230,3)	(0,17)	(235,3)	(-22,7)	(10,12)	(245,4)	(228,3)	
L1D -328>	(-2,103)	(223,27)	(-22,8)	(0,124)	(10,1)	(116,4)	(233,4)	(1,16)	(109,23)	(-11,16)	(-21,7)	(222,3)	(-5,8)	(381,3)	(328,80)	(243,4)	
L1D -327>	(254,9)	(-11,17)	(227,10)	(222,11)	(-21,19)	(-4,34)	(10,28)	(1,17)	(231,4)	(0,13)	(-22,16)	(343,1)	(-10,13)	(11,13)	(327,30)	(221,8)	
L1D -326>	(1,59)	(0,20)	(3,4)	(225,14)	(-5,1)	(257,8)	(232,14)	(10,25)	(-11,13)	(242,4)	(-6,7)	(143,3)	(110,5)	(230,29)	(11,13)	(253,9)	
L1D -325>	(3,5)	(11,13)	(230,35)	(342,3)	(1,57)	(-11,9)	(253,5)	(224,9)	(10,8)	(0,6)	(162,1)	(147,3)	(-10,8)	(229,11)	(146,4)	(225,25)	
L1D -324>	(3,5)	(229,39)	(-11,5)	(224,28)	(0,8)	(10,15)	(1,25)	(-22,11)	(188,1)	(339,3)	(-21,5)	(250,5)	(185,2)	(156,2)	(258,7)	(223,9)	
L1D -323>	(1,24)	(3,6)	(228,17)	(229,18)	(-10,9)	(11,7)	(-11,31)	(223,11)	(0,3)	(-21,9)	(222,6)	(10,10)	(-22,10)	(188,1)	(323,3)	(146,3)	
L1D -322>	(232,6)	(1,82)	(227,3)	(233,3)	(153,1)	(-156,1)	(154,1)	(275,1)	(-22,10)	(0,2)	(-11,7)	(222,4)	(10,8)	(159,1)	(11,4)	(-21,1)	
L1D -321>	(338,3)	(-21,4)	(228,2)	(1,126)	(10,3)	(-10,5)	(337,2)	(-1,1)	(95,1)	(149,1)	(-11,4)	(226,3)	(-177,1)	(189,2)	(319,1)	(185,1)	
L1D -320>	(7,3)	(11,8)	(1,43)	(225,4)	(10,9)	(320,12)	(0,53)	(319,15)	(-11,7)	(231,5)	(110,1)	(-5,10)	(173,2)	(-21,5)	(181,2)	(247,5)	
L1D -319>	(3,4)	(320,8)	(179,2)	(1,103)	(-22,5)	(11,16)	(-21,4)	(157,3)	(184,2)	(240,6)	(0,8)	(10,5)	(146,6)	(229,5)	(-1,2)	(151,1)	
L1D -318>	(3,6)	(238,6)	(1,9)	(10,17)	(11,10)	(0,5)	(191,3)	(-10,4)	(-21,4)	(189,1)	(252,2)	(179,5)	(-22,23)	(-14,3)	(230,4)	(134,2)	
L1D -317>	(-11,3)	(227,9)	(1,8)	(164,1)	(10,18)	(147,3)	(-10,5)	(254,8)	(-3,5)	(222,3)	(-21,24)	(146,4)	(228,5)	(154,3)	(238,4)	(159,2)	
L1D -316>	(3,5)	(156,1)	(-11,9)	(-15,2)	(161,2)	(343,3)	(227,7)	(225,10)	(184,2)	(11,6)	(229,3)	(-21,4)	(237,9)	(254,7)	(10,12)	(248,4)	
L1D -315>	(11,7)	(10,9)	(3,2)	(182,2)	(248,2)	(-11,7)	(246,2)	(144,2)	(147,2)	(1,4)	(225,6)	(-16,1)	(262,1)	(106,1)	(227,1)	(170,1)	
L1D -314>	(1,5)	(3,4)	(342,2)	(11,7)	(-7,22)	(-11,4)	(10,9)	(338,2)	(224,5)	(-22,4)	(253,5)	(-21,5)	(158,1)	(167,1)	(226,3)	(0,2)	
L1D -313>	(3,7)	(236,1)	(0,2)	(174,2)	(223,13)	(-11,7)	(228,3)	(177,3)	(178,3)	(136,2)	(192,2)	(157,2)	(10,6)	(185,2)	(-7,10)	(314,32)	
L1D -312>	(0,15)	(3,4)	(1,36)	(223,7)	(-11,13)	(184,3)	(180,4)	(-20,1)	(312,5)	(-21,5)	(-18,5)	(10,12)	(243,2)	(169,2)	(190,2)	(228,2)	
L1D -311>	(3,2)	(10,12)	(1,6)	(-22,3)	(11,5)	(184,2)	(149,3)	(227,2)	(236,5)	(145,2)	(-21,11)	(243,8)	(155,1)	(0,2)	(152,1)	(-20,3)	
L1D -310>	(1,2)	(3,3)	(11,11)	(342,5)	(310,3)	(235,2)	(-11,3)	(127,2)	(10,6)	(-10,2)	(-21,7)	(152,2)	(156,2)	(111,1)	(173,1)	(123,1)	
L1D -309>	(-21,3)	(1,11)	(176,1)	(122,1)	(124,1)	(5,1)	(-11,2)	(10,2)	(0,1)	(147,2)	(11,3)	(245,4)	(145,2)	(242,1)	(309,95)	(156,1)	
L1D -308>	(-21,3)	(191,2)	(1,102)	(10,1)	(164,1)	(159,3)	(158,1)	(247,1)	(192,3)	(179,1)	(11,3)	(176,1)	(272,1)	(301,1)	(186,1)	(169,2)	
L1D -307>	(3,5)	(222,10)	(-11,4)	(-22,4)	(1,5)	(-25,1)	(158,2)	(10,14)	(233,6)	(194,2)	(169,2)	(149,2)	(307,2)	(161,2)	(11,9)	(176,2)	
L1D -306>	(16,24)	(3,4)	(223,2)	(2,23)	(306,75)	(-19,10)	(0,13)	(1,2)	(-11,6)	(232,3)	(147,2)	(-21,5)	(243,2)	(244,4)	(11,1)	(334,1)	
L1D -305>	(21,2)	(3,2)	(232,7)	(10,11)	(11,4)	(353,2)	(-21,5)	(-11,6)	(305,3)	(1,3)	(179,1)	(153,1)	(222,10)	(4,1)	(-33,1)	(-134,1)	
L1D -304>	(3,4)	(11,9)	(159,5)	(-22,4)	(10,15)	(21,2)	(-21,2)	(152,1)	(183,1)	(1,3)	(170,2)	(304,26)	(288,1)	(-118,1)	(-3,1)	(245,2)	
L1D -303>	(3,4)	(176,3)	(188,3)	(149,2)	(0,2)	(11,8)	(124,2)	(-22,3)	(193,4)	(154,3)	(247,2)	(191,2)	(186,3)	(-21,1)	(21,2)	(331,1)	
L1D -302>	(3,3)	(190,4)	(244,4)	(11,11)	(178,3)	(50,1)	(194,2)	(232,2)	(-11,2)	(238,3)	(138,2)	(149,2)	(152,2)	(-32,2)	(1,3)	(302,2)	
L1D -301>	(222,6)	(1,7)	(231,2)	(3,3)	(-11,7)	(11,9)	(-21,2)	(238,4)	(127,2)	(-177,1)	(298,1)	(10,14)	(99,1)	(128,1)	(125,2)	(123,1)	
L1D -300>	(1,17)	(157,3)	(10,5)	(162,1)	(289,43)	(294,3)	(-21,3)	(21,3)	(243,2)	(230,6)	(11,6)	(237,5)	(169,2)	(149,3)	(174,2)	(161,2)	
L1D -299>	(289,42)	(11,17)	(278,1)	(1,9)	(10,8)	(-22,9)	(0,2)	(230,2)	(145,4)	(170,3)	(165,2)	(237,3)	(240,7)	(288,46)	(-21,3)	(21,2)	
L1D -298>	(288,5)	(153,2)	(1,11)	(11,4)	(3,2)	(229,5)	(287,15)	(-21,6)	(0,3)	(239,6)	(169,2)	(10,6)	(37,1)	(47,1)	(151,1)	(301,1)	
L1D -297>	(1,9)	(3,3)	(158,1)	(189,2)	(286,17)	(352,4)	(287,24)	(-11,6)	(111,3)	(194,2)	(-21,2)	(139,2)	(121,2)	(154,2)	(11,8)	(160,3)	
L1D -296>	(1,17)	(241,4)	(290,2)	(3,5)	(0,5)	(11,6)	(147,2)	(10,23)	(286,4)	(280,2)	(146,2)	(285,16)	(-21,4)	(27,1)	(275,1)	(162,2)	
L1D -295>	(3,6)	(1,5)	(0,2)	(284,64)	(157,2)	(10,10)	(-21,3)	(11,8)	(227,3)	(285,15)	(238,2)	(243,2)	(151,1)	(-47,1)	(161,1)	(154,5)	
L1D -294>	(3,3)	(11,29)	(180,1)	(1,5)	(283,8)	(299,3)	(289,6)	(284,32)	(184,2)	(170,2)	(154,3)	(240,5)	(186,2)	(173,2)	(10,6)	(177,2)	
L1D -293>	(183,1)	(10,7)	(3,1)	(11,21)	(277,3)	(288,8)	(1,3)	(282,89)	(-22,1)	(152,2)	(283,9)	(177,2)	(-21,4)	(368,1)	(161,1)	(239,1)	
L1D -292>	(1,62)	(3,7)	(10,1)	(292,8)	(287,19)	(11,37)	(276,2)	(282,7)	(281,9)	(-21,6)	(148,5)	(194,3)	(233,2)	(139,2)	(183,3)	(176,4)	
L1D -291>	(234,5)	(280,33)	(236,5)	(158,1)	(286,28)	(1,7)	(233,2)	(291,9)	(-11,2)	(11,45)	(3,2)	(170,4)	(10,8)	(281,40)	(125,2)	(285,12)	
L1D -290>	(11,49)	(285,18)	(3,6)	(1,11)	(10,10)	(152,1)	(290,12)	(280,24)	(279,16)	(275,2)	(225,5)	(-11,2)	(21,3)	(-16,11)	(232,4)	(189,2)	
L1D -289>	(284,22)	(3,4)	(11,49)	(394,3)	(10,17)	(294,8)	(1,11)	(0,5)	(21,8)	(467,6)	(154,4)	(-21,6)	(278,7)	(405,3)	(173,5)	(289,1)	
L1D -288>	(1,7)	(283,51)	(388,9)	(293,18)	(404,5)	(410,6)	(11,61)	(394,5)	(409,19)	(21,18)	(466,25)	(393,36)	(288,14)	(10,43)	(188,1)	(277,3)	
L1D -287>	(1,26)	(463,14)	(10,30)	(0,27)	(281,18)	(387,11)	(392,26)	(402,4)	(277,32)	(276,32)	(153,1)	(292,29)	(3,4)	(11,28)	(21,14)	(282,28)	
L1D -286>	(402,22)	(276,49)	(153,1)	(462,31)	(292,37)	(281,31)	(1,32)	(11,78)	(10,47)	(0,10)	(291,87)	(275,48)	(236,5)	(22,28)	(176,3)	(9,4)	
L1D -285>	(22,16)	(390,11)	(459,6)	(290,70)	(11,35)	(280,21)	(401,8)	(275,23)	(174,1)	(0,10)	(10,22)	(3,3)	(1,12)	(279,13)	(274,22)	(222,2)	
L1D -284>	(0,5)	(383,11)	(10,32)	(458,32)	(457,6)	(9,7)	(290,39)	(11,44)	(274,37)	(389,7)	(289,34)	(1,39)	(170,3)	(3,5)	(278,1)	(273,13)	
L1D -283>	(3,3)	(388,30)	(378,4)	(10,36)	(1,13)	(456,41)	(288,82)	(11,20)	(383,15)	(399,16)	(278,20)	(289,1)	(0,13)	(283,15)	(372,15)	(273,33)	
L1D -282>	(277,22)	(276,11)	(1,24)	(3,2)	(11,24)	(10,31)	(287,30)	(272,74)	(382,7)	(234,2)	(282,10)	(171,4)	(271,2)	(159,1)	(454,3)	(398,4)	
L1D -281>	(11,106)	(228,4)	(1,21)	(391,28)	(452,23)	(286,24)	(0,17)	(21,16)	(270,4)	(271,18)	(275,1)	(376,6)	(10,59)	(287,6)	(276,40)	(386,8)	
L1D -280>	(169,4)	(269,44)	(275,32)	(1,68)	(11,74)	(380,32)	(21,1)	(7,9)	(450,36)	(274,28)	(449,36)	(285,27)	(286,4)	(10,78)	(375,4)	(391,6)	
L1D -279>	(-11,10)	(1,25)	(447,26)	(384,44)	(284,103)	(0,22)	(379,15)	(10,108)	(285,41)	(157,1)	(458,27)	(279,15)	(269,19)	(268,47)	(274,45)	(11,74)	
L1D -278>	(3,7)	(162,6)	(446,24)	(383,18)	(0,17)	(445,28)	(-22,4)	(283,19)	(1,22)	(268,56)	(288,8)	(267,76)	(273,25)	(10,31)	(-21,8)	(367,1)	
L1D -277>	(282,45)	(267,66)	(382,4)	(277,16)	(11,42)	(1,11)	(272,25)	(393,12)	(266,59)	(-21,3)	(387,15)	(-11,1)	(377,11)	(152,4)	(10,30)	(161,5)	
L1D -276>	(1,74)	(11,52)	(268,4)	(282,18)	(10,38)	(441,54)	(231,10)	(381,30)	(386,13)	(266,23)	(281,88)	(391,5)	(271,38)	(392,1)	(366,5)	(21,12)	
L1D -275>	(1,22)	(440,43)	(21,14)	(280,79)	(386,18)	(11,39)	(275,10)	(10,43)	(375,14)	(230,4)	(-11,1)	(441,7)	(264,56)	(391,10)	(0,9)	(269,10)	
L1D -274>	(379,31)	(437,41)	(279,47)	(-21,7)	(1,57)	(374,16)	(10,61)	(438,39)	(280,31)	(390,8)	(11,66)	(21,1)	(3,6)	(263,35)	(233,4)	(384,24)	
L1D -273>	(278,12)	(273,9)	(3,6)	(11,34)	(1,17)	(-7,5)	(373,15)	(383,10)	(10,59)	(-11,8)	(0,7)	(262,22)	(267,1)	(435,8)	(257,4)	(279,3)	
L1D -272>	(10,24)	(167,1)	(11,81)	(377,21)	(383,17)	(277,22)	(0,10)	(262,17)	(443,22)	(-11,16)	(-7,6)	(1,22)	(382,7)	(266,14)	(267,20)	(455,3)	
L1D -271>	(1,56)	(277,32)	(276,98)	(270,2)	(265,40)	(11,82)	(-11,22)	(370,19)	(431,32)	(260,40)	(266,26)	(261,45)	(-21,11)	(376,24)	(10,26)	(381,20)	
L1D -270>	(430,59)	(-11,18)	(375,26)	(276,61)	(380,29)	(275,124)	(11,81)	(265,69)	(298,1)	(259,47)	(1,25)	(270,22)	(260,58)	(3,5)	(22,17)	(10,58)	
L1D -269>	(258,67)	(259,74)	(374,23)	(427,27)	(274,95)	(-21,12)	(379,1)	(428,14)	(10,64)	(275,36)	(1,20)	(3,5)	(263,22)	(11,67)	(380,11)	(385,9)	
L1D -268>	(1,57)	(426,11)	(379,18)	(-11,7)	(11,39)	(258,6)	(373,3)	(257,20)	(274,20)	(3,4)	(268,11)	(273,35)	(263,16)	(10,22)	(447,8)	(378,7)	
L1D -267>	(1,24)	(372,5)	(11,64)	(257,34)	(388,4)	(378,15)	(272,65)	(10,18)	(273,26)	(267,15)	(256,41)	(21,28)	(78,1)	(151,3)	(424,13)	(262,25)	
L1D -266>	(256,16)	(422,12)	(421,24)	(10,65)	(272,37)	(271,62)	(376,12)	(366,22)	(382,13)	(255,18)	(11,82)	(261,28)	(260,13)	(-97,1)	(1,40)	(0,28)	
L1D -265>	(156,1)	(420,20)	(-21,6)	(370,24)	(419,17)	(0,12)	(270,37)	(1,10)	(255,16)	(10,95)	(9,7)	(381,14)	(259,18)	(265,8)	(11,101)	(260,46)	
L1D -264>	(10,105)	(258,39)	(269,36)	(441,1)	(369,37)	(380,11)	(22,11)	(417,31)	(364,17)	(1,46)	(-11,8)	(253,6)	(264,21)	(259,38)	(0,15)	(11,83)	
L1D -263>	(252,12)	(416,13)	(1,15)	(153,3)	(268,30)	(269,44)	(248,3)	(10,72)	(258,32)	(368,8)	(253,73)	(-11,17)	(155,1)	(417,3)	(263,7)	(11,26)	
L1D -262>	(1,24)	(11,61)	(3,4)	(230,1)	(267,89)	(413,11)	(251,41)	(10,44)	(414,17)	(378,7)	(268,37)	(0,23)	(252,36)	(-21,12)	(22,12)	(257,16)	
L1D -261>	(412,16)	(366,29)	(266,103)	(0,18)	(411,44)	(1,35)	(10,57)	(-11,11)	(250,12)	(251,2)	(377,18)	(361,12)	(267,39)	(21,17)	(11,64)	(256,33)	
L1D -260>	(244,1)	(376,8)	(250,14)	(265,103)	(365,19)	(381,5)	(409,42)	(360,17)	(1,49)	(0,11)	(10,28)	(11,33)	(410,34)	(375,9)	(255,17)	(249,31)	
L1D -259>	(153,1)	(-11,9)	(249,53)	(359,26)	(408,34)	(248,43)	(264,74)	(254,29)	(265,50)	(1,30)	(364,28)	(260,6)	(3,8)	(259,9)	(11,52)	(407,8)	
L1D -258>	(264,30)	(148,5)	(248,11)	(358,17)	(406,57)	(3,6)	(405,19)	(10,76)	(263,37)	(109,3)	(363,14)	(151,1)	(11,57)	(-13,12)	(1,6)	(253,21)	
L1D -257>	(1,54)	(403,52)	(246,1)	(362,10)	(262,32)	(0,23)	(21,9)	(404,14)	(11,110)	(263,9)	(10,46)	(9,5)	(372,9)	(357,18)	(368,4)	(252,28)	
L1D -256>	(3,8)	(361,27)	(401,16)	(245,6)	(372,13)	(1,68)	(0,33)	(350,5)	(261,36)	(356,26)	(402,38)	(10,87)	(262,12)	(192,7)	(92,1)	(-21,16)	
L1D -255>	(250,41)	(400,51)	(3,10)	(350,7)	(260,49)	(371,22)	(355,18)	(156,1)	(399,50)	(1,46)	(0,26)	(360,28)	(10,58)	(370,10)	(21,10)	(11,39)	
L1D -254>	(3,3)	(249,34)	(398,40)	(243,35)	(259,75)	(0,12)	(254,1)	(9,4)	(260,33)	(375,5)	(10,39)	(11,45)	(21,11)	(244,36)	(1,14)	(359,12)	
L1D -253>	(259,16)	(3,7)	(1,28)	(248,35)	(11,41)	(395,16)	(243,44)	(369,13)	(358,20)	(10,33)	(242,117)	(258,98)	(253,14)	(151,1)	(21,19)	(363,10)	
L1D -252>	(1,84)	(10,34)	(357,1)	(393,92)	(257,94)	(368,10)	(252,18)	(241,47)	(0,12)	(358,8)	(246,15)	(247,23)	(11,38)	(21,14)	(100,2)	(3,6)	
L1D -251>	(391,9)	(257,18)	(356,15)	(256,52)	(345,3)	(367,7)	(361,5)	(10,11)	(392,26)	(1,8)	(240,18)	(246,22)	(167,1)	(11,30)	(241,111)	(21,6)	
L1D -250>	(3,8)	(390,37)	(161,1)	(355,14)	(147,3)	(10,33)	(1,33)	(360,11)	(366,6)	(11,30)	(365,7)	(240,34)	(239,37)	(260,6)	(255,26)	(-11,10)	
L1D -249>	(388,60)	(387,48)	(349,24)	(354,38)	(-11,26)	(254,55)	(0,22)	(10,92)	(3,9)	(11,83)	(1,32)	(239,24)	(343,5)	(244,81)	(21,19)	(106,1)	
L1D -248>	(248,19)	(348,14)	(3,6)	(21,30)	(243,44)	(11,62)	(386,13)	(364,5)	(353,40)	(10,48)	(0,19)	(242,18)	(369,3)	(157,3)	(1,47)	(152,2)	
L1D -247>	(237,37)	(1,18)	(363,4)	(241,9)	(384,17)	(236,82)	(-11,14)	(242,16)	(383,13)	(10,36)	(252,21)	(0,11)	(11,25)	(320,2)	(152,1)	(-170,1)	
L1D -246>	(381,40)	(236,113)	(1,29)	(246,10)	(382,56)	(235,96)	(241,59)	(252,32)	(351,33)	(362,12)	(11,112)	(240,31)	(-21,6)	(251,106)	(10,55)	(22,1)	
L1D -245>	(251,48)	(235,104)	(1,15)	(-11,16)	(397,1)	(250,42)	(350,5)	(239,17)	(0,5)	(134,9)	(11,107)	(380,7)	(356,15)	(135,6)	(21,44)	(234,72)	
L1D -244>	(-11,20)	(349,18)	(377,48)	(234,35)	(354,29)	(250,27)	(344,29)	(249,112)	(1,110)	(133,1)	(22,16)	(11,58)	(21,17)	(239,36)	(244,13)	(233,26)	
L1D -243>	(376,39)	(21,20)	(248,92)	(1,21)	(348,8)	(0,11)	(243,16)	(232,60)	(11,69)	(233,103)	(10,41)	(249,30)	(237,6)	(179,1)	(-11,20)	(238,24)	
L1D -242>	(1,30)	(374,17)	(232,92)	(358,5)	(236,9)	(248,32)	(10,35)	(247,34)	(131,5)	(237,27)	(342,27)	(5,16)	(11,69)	(110,4)	(22,12)	(352,1)	
L1D -241>	(1,16)	(346,11)	(371,5)	(0,13)	(-156,1)	(351,3)	(372,34)	(246,23)	(247,3)	(10,40)	(236,28)	(11,72)	(357,4)	(22,10)	(241,9)	(21,5)	
L1D -240>	(1,10)	(10,84)	(370,13)	(366,1)	(369,5)	(0,12)	(245,30)	(9,5)	(355,5)	(11,91)	(235,26)	(356,3)	(246,6)	(234,6)	(22,4)	(129,5)	
L1D -239>	(234,35)	(344,56)	(368,17)	(244,98)	(345,8)	(1,20)	(0,27)	(245,35)	(22,16)	(11,75)	(239,25)	(10,60)	(12,1)	(367,20)	(355,15)	(21,43)	
L1D -238>	(228,9)	(366,30)	(343,33)	(243,87)	(0,10)	(1,17)	(11,88)	(232,15)	(338,8)	(354,13)	(-11,22)	(-21,4)	(244,37)	(233,54)	(-100,1)	(10,44)	
L1D -237>	(-172,4)	(242,110)	(121,4)	(347,10)	(364,11)	(10,63)	(243,45)	(237,14)	(353,7)	(5,21)	(-178,1)	(0,11)	(127,11)	(11,65)	(232,23)	(363,9)	
L1D -236>	(5,12)	(362,32)	(361,51)	(22,13)	(-5,1)	(241,105)	(123,2)	(337,4)	(341,14)	(0,8)	(1,13)	(126,5)	(242,15)	(342,4)	(11,14)	(10,25)	
L1D -235>	(360,55)	(359,42)	(335,24)	(1,10)	(10,30)	(240,106)	(329,6)	(-50,1)	(241,76)	(336,17)	(11,13)	(351,5)	(22,18)	(21,23)	(340,24)	(235,9)	
L1D -234>	(333,5)	(358,50)	(21,20)	(357,36)	(228,15)	(239,52)	(240,46)	(135,3)	(334,35)	(0,18)	(1,26)	(9,7)	(10,82)	(335,1)	(129,4)	(11,58)	
L1D -233>	(356,60)	(11,96)	(333,50)	(238,49)	(239,15)	(355,10)	(10,119)	(-11,18)	(21,23)	(228,42)	(22,20)	(349,12)	(332,9)	(338,9)	(1,10)	(111,1)	
L1D -232>	(6,45)	(5,16)	(354,34)	(353,30)	(337,28)	(237,33)	(0,12)	(347,19)	(10,85)	(-155,4)	(227,25)	(327,9)	(121,31)	(226,17)	(11,85)	(-100,1)	
L1D -231>	(236,27)	(6,18)	(5,68)	(351,38)	(1,10)	(0,11)	(347,1)	(11,6)	(110,12)	(-21,6)	(220,11)	(10,73)	(-11,22)	(225,33)	(126,20)	(121,21)	
L1D -230>	(224,38)	(330,8)	(349,41)	(329,4)	(350,38)	(335,41)	(235,121)	(1,12)	(10,52)	(225,29)	(-21,9)	(11,2)	(0,16)	(-11,18)	(336,4)	(230,10)	
L1D -229>	(229,7)	(224,18)	(334,12)	(234,78)	(347,10)	(0,4)	(348,24)	(219,3)	(358,3)	(1,4)	(339,1)	(223,13)	(-11,5)	(10,24)	(230,2)	(11,9)	
L1D -228>	(346,51)	(333,38)	(233,98)	(221,1)	(0,8)	(1,6)	(328,8)	(218,4)	(-11,8)	(123,3)	(345,50)	(110,4)	(322,16)	(10,31)	(-21,13)	(228,8)	
L1D -227>	(6,124)	(332,19)	(105,12)	(343,18)	(-21,5)	(5,11)	(111,24)	(-11,10)	(327,9)	(232,52)	(-169,1)	(316,17)	(344,22)	(0,8)	(10,23)	(227,21)	
L1D -226>	(0,14)	(5,111)	(342,12)	(10,4)	(105,38)	(6,8)	(341,6)	(226,22)	(231,18)	(106,10)	(95,1)	(111,13)	(-105,9)	(221,13)	(115,2)	(110,31)	
L1D -225>	(340,39)	(219,40)	(325,12)	(339,41)	(230,22)	(111,8)	(330,15)	(220,23)	(10,20)	(0,21)	(105,8)	(214,5)	(-11,14)	(110,8)	(143,5)	(-22,1)	
L1D -224>	(219,43)	(338,33)	(213,12)	(218,30)	(329,20)	(-11,15)	(337,25)	(324,18)	(10,22)	(1,12)	(214,1)	(230,10)	(272,3)	(339,10)	(229,13)	(0,12)	
L1D -223>	(328,26)	(218,36)	(336,26)	(335,35)	(-11,20)	(10,30)	(1,12)	(217,24)	(324,4)	(212,9)	(-22,4)	(337,4)	(339,7)	(223,4)	(323,11)	(0,2)	
L1D -222>	(110,16)	(1,17)	(334,19)	(335,3)	(322,18)	(217,33)	(327,7)	(105,24)	(222,18)	(-11,2)	(0,13)	(212,1)	(227,14)	(-277,1)	(10,25)	(296,2)	
L1D -221>	(0,40)	(-6,9)	(221,74)	(5,27)	(110,100)	(227,1)	(100,13)	(226,7)	(111,64)	(-5,5)	(-133,55)	(-143,3)	(216,18)	(-125,3)	(-132,7)	(105,44)	
L1D -220>	(220,72)	(0,16)	(-108,8)	(5,12)	(6,12)	(110,32)	(121,15)	(-134,55)	(-1,8)	(116,11)	(105,16)	(221,126)	(-133,1)	(-132,48)	(-156,3)	(-11,21)	
L1D -219>	(-135,33)	(-109,3)	(-111,5)	(0,1)	(220,80)	(10,4)	(-133,37)	(-11,14)	(219,38)	(224,8)	(121,6)	(116,3)	(-138,3)	(11,3)	(-21,2)	(-134,5)	
L1D -218>	(219,121)	(-112,11)	(218,55)	(-134,43)	(0,7)	(126,2)	(-11,11)	(-135,12)	(-110,4)	(120,1)	(142,1)	(5,2)	(116,8)	(-136,61)	(11,3)	(223,2)	
L1D -217>	(217,58)	(218,102)	(-135,26)	(-136,10)	(5,3)	(6,14)	(-111,3)	(0,4)	(-11,6)	(-140,3)	(-4,1)	(-113,2)	(110,4)	(121,2)	(-137,33)	(227,1)	
L1D -216>	(216,72)	(217,77)	(-137,19)	(0,6)	(-138,27)	(-5,52)	(-136,24)	(6,17)	(105,1)	(221,8)	(-11,2)	(-164,1)	(5,12)	(111,12)	(116,9)	(121,14)	
L1D -215>	(215,105)	(216,125)	(111,33)	(-137,50)	(-6,29)	(6,20)	(-139,50)	(0,26)	(1,12)	(-138,21)	(16,1)	(149,5)	(110,21)	(116,13)	(5,27)	(-5,5)	
L1D -214>	(215,101)	(115,1)	(-114,6)	(-138,25)	(5,15)	(116,7)	(0,6)	(111,15)	(214,42)	(110,13)	(6,5)	(-116,6)	(136,4)	(-139,10)	(-140,39)	(121,6)	
L1D -213>	(213,53)	(-141,44)	(214,77)	(110,15)	(-139,30)	(111,16)	(0,5)	(6,11)	(128,1)	(5,19)	(-117,7)	(-140,6)	(-115,2)	(116,8)	(-21,3)	(115,2)	
L1D -212>	(-142,59)	(213,105)	(-141,16)	(110,25)	(5,20)	(212,64)	(-140,53)	(10,1)	(1,16)	(0,13)	(111,13)	(117,4)	(6,12)	(-118,7)	(-116,4)	(131,4)	
L1D -211>	(-143,53)	(212,108)	(95,1)	(211,83)	(-5,10)	(0,13)	(-141,42)	(5,22)	(126,19)	(110,27)	(-10,25)	(115,8)	(111,37)	(116,21)	(-142,16)	(-119,9)	
L1D -210>	(-143,7)	(211,72)	(115,18)	(210,39)	(-121,2)	(110,8)	(-11,11)	(-5,6)	(-142,32)	(121,4)	(-144,31)	(111,15)	(105,2)	(-10,21)	(-106,1)	(0,5)	
L1D -209>	(116,7)	(210,104)	(-144,13)	(5,11)	(0,12)	(209,70)	(-5,11)	(-121,5)	(111,34)	(105,1)	(-11,43)	(-143,35)	(-145,35)	(110,36)	(-10,14)	(10,3)	
L1D -208>	(209,68)	(-144,25)	(111,36)	(208,37)	(5,11)	(105,5)	(-146,32)	(123,1)	(110,31)	(-122,3)	(115,3)	(-11,3)	(-10,23)	(6,7)	(-145,9)	(116,3)	
L1D -207>	(139,4)	(-10,22)	(207,44)	(5,19)	(-5,9)	(110,22)	(-147,34)	(122,4)	(105,10)	(111,29)	(115,6)	(-146,8)	(-145,42)	(208,76)	(126,3)	(116,1)	
L1D -206>	(206,42)	(111,37)	(-271,1)	(-146,41)	(-10,17)	(-5,3)	(-147,15)	(-11,17)	(110,20)	(121,19)	(125,6)	(207,82)	(-124,6)	(5,7)	(105,5)	(-148,42)	
L1D -205>	(105,5)	(110,49)	(-147,30)	(206,84)	(205,15)	(1,5)	(5,14)	(-11,11)	(0,4)	(-125,6)	(124,5)	(121,1)	(-148,11)	(116,11)	(-16,14)	(-149,34)	
L1D -204>	(-11,35)	(204,108)	(111,36)	(-5,8)	(138,7)	(5,21)	(110,25)	(-10,36)	(205,100)	(0,29)	(1,32)	(-148,59)	(127,10)	(-149,6)	(-6,1)	(-150,51)	
L1D -203>	(-149,45)	(203,86)	(116,17)	(105,17)	(100,7)	(5,11)	(-10,36)	(111,29)	(-5,29)	(110,28)	(-153,1)	(204,90)	(137,4)	(159,5)	(-151,32)	(-150,5)	
L1D -202>	(132,6)	(202,32)	(-150,49)	(-11,39)	(203,66)	(110,38)	(100,8)	(115,5)	(106,4)	(121,17)	(5,9)	(-152,55)	(-5,1)	(-151,8)	(136,5)	(-10,40)	
L1D -201>	(201,47)	(-153,44)	(110,28)	(202,82)	(117,16)	(-10,38)	(105,9)	(116,25)	(-5,45)	(21,3)	(0,14)	(111,1)	(1,5)	(-151,30)	(-152,4)	(-11,14)	
L1D -200>	(200,56)	(116,47)	(-154,42)	(201,50)	(6,25)	(-152,36)	(111,49)	(-11,12)	(-21,13)	(-153,1)	(115,8)	(-175,4)	(132,3)	(105,22)	(-130,4)	(-127,4)	
L1D -199>	(-155,33)	(199,58)	(116,13)	(105,8)	(110,20)	(-153,40)	(-6,6)	(-131,5)	(-16,1)	(-10,26)	(200,56)	(-129,4)	(-11,29)	(111,35)	(-5,17)	(106,7)	
L1D -198>	(110,58)	(198,24)	(105,37)	(199,40)	(111,23)	(6,22)	(114,1)	(-154,36)	(-6,10)	(-156,26)	(115,14)	(1,4)	(116,5)	(5,19)	(132,7)	(-5,5)	
L1D -197>	(197,26)	(110,45)	(-11,20)	(-155,17)	(-6,6)	(5,26)	(105,48)	(100,7)	(-157,30)	(116,12)	(198,40)	(112,1)	(121,8)	(115,6)	(-156,6)	(6,4)	
L1D -196>	(-10,12)	(-133,2)	(111,27)	(-156,34)	(-140,2)	(197,32)	(196,6)	(115,3)	(-158,19)	(1,3)	(5,3)	(-157,1)	(-95,1)	(-132,3)	(-134,3)	(100,2)	
L1D -195>	(110,29)	(95,4)	(-11,46)	(-10,47)	(195,47)	(5,4)	(6,7)	(196,36)	(-157,22)	(111,48)	(1,5)	(-158,1)	(-135,3)	(106,6)	(-159,35)	(11,18)	
L1D -194>	(195,45)	(99,3)	(-158,25)	(5,19)	(-160,30)	(194,50)	(115,9)	(116,11)	(111,28)	(105,13)	(-21,1)	(-5,11)	(100,9)	(0,11)	(117,11)	(-10,7)	
L1D -193>	(-160,1)	(-161,24)	(100,8)	(0,9)	(110,12)	(116,9)	(5,4)	(-5,22)	(111,6)	(-11,5)	(1,12)	(194,40)	(-159,10)	(127,4)	(10,12)	(193,40)	
L1D -192>	(-11,30)	(1,33)	(-162,26)	(0,1)	(192,29)	(5,29)	(99,10)	(105,7)	(-160,16)	(193,28)	(107,3)	(100,6)	(111,19)	(116,7)	(-10,11)	(-6,19)	
L1D -191>	(1,42)	(192,39)	(-161,22)	(0,4)	(110,25)	(191,5)	(-10,10)	(-163,27)	(-139,2)	(6,5)	(100,2)	(147,6)	(5,6)	(215,1)	(-137,1)	(-162,6)	
L1D -190>	(0,6)	(-5,4)	(190,22)	(-169,3)	(111,10)	(-162,17)	(1,48)	(105,11)	(115,25)	(6,29)	(-164,25)	(191,34)	(109,6)	(143,1)	(122,3)	(5,7)	
L1D -189>	(110,26)	(-163,21)	(1,53)	(-11,36)	(189,68)	(5,40)	(115,23)	(283,1)	(0,10)	(-10,16)	(108,6)	(89,14)	(105,14)	(190,30)	(-165,4)	(111,18)	
L1D -188>	(-164,12)	(-10,15)	(111,25)	(188,24)	(122,4)	(100,9)	(-21,5)	(110,33)	(5,34)	(11,6)	(1,55)	(189,29)	(0,8)	(132,3)	(-166,15)	(89,1)	
L1D -187>	(-5,9)	(1,44)	(187,24)	(111,54)	(106,5)	(188,28)	(138,1)	(110,21)	(-11,38)	(126,18)	(11,17)	(-10,57)	(-165,9)	(-6,10)	(105,7)	(211,4)	
L1D -186>	(1,51)	(-166,13)	(111,9)	(187,25)	(110,10)	(115,6)	(-142,2)	(-21,3)	(10,10)	(105,3)	(116,5)	(0,1)	(132,1)	(2,1)	(-168,13)	(-276,1)	
L1D -185>	(185,37)	(1,54)	(-4,5)	(111,32)	(-168,2)	(-167,12)	(186,21)	(0,4)	(-148,2)	(11,5)	(-122,3)	(10,4)	(-10,14)	(-5,10)	(-169,4)	(7,1)	
L1D -184>	(184,69)	(110,77)	(5,61)	(105,5)	(185,21)	(-10,5)	(-11,64)	(100,5)	(11,5)	(115,7)	(1,45)	(89,12)	(99,3)	(-168,8)	(-6,9)	(178,1)	
L1D -183>	(-171,16)	(1,53)	(183,18)	(127,9)	(11,1)	(-11,25)	(5,28)	(172,5)	(110,40)	(-169,11)	(-145,2)	(10,2)	(-10,22)	(111,30)	(-21,10)	(0,5)	
L1D -182>	(288,4)	(-146,3)	(182,9)	(1,50)	(111,8)	(-11,9)	(282,5)	(-170,8)	(208,1)	(11,12)	(-172,10)	(138,4)	(-5,4)	(101,3)	(125,3)	(183,8)	
L1D -181>	(1,52)	(0,11)	(181,13)	(110,8)	(99,3)	(-11,5)	(105,11)	(95,1)	(-149,4)	(111,14)	(-10,5)	(11,12)	(100,4)	(-173,14)	(120,18)	(5,32)	
L1D -180>	(111,26)	(1,59)	(-172,8)	(281,4)	(11,12)	(3,1)	(286,4)	(110,29)	(122,2)	(-10,10)	(180,13)	(5,13)	(274,4)	(-174,12)	(181,9)	(6,14)	
L1D -179>	(0,12)	(-6,9)	(11,25)	(-183,6)	(179,69)	(-5,13)	(-279,19)	(-11,33)	(5,12)	(110,20)	(66,1)	(111,36)	(-10,43)	(105,16)	(1,48)	(180,11)	
L1D -178>	(-10,20)	(11,12)	(1,66)	(273,1)	(283,3)	(178,22)	(-289,23)	(111,9)	(-288,31)	(0,9)	(-174,3)	(10,23)	(106,2)	(101,2)	(-111,2)	(-11,2)	
L1D -177>	(177,55)	(10,47)	(178,14)	(0,5)	(-175,10)	(-10,6)	(-287,4)	(1,52)	(11,18)	(176,17)	(172,4)	(5,6)	(22,4)	(-288,5)	(-177,9)	(-11,5)	
L1D -176>	(176,72)	(292,1)	(1,57)	(21,6)	(-287,37)	(115,8)	(-286,37)	(0,11)	(-11,33)	(10,37)	(177,24)	(171,3)	(-154,3)	(6,15)	(-10,28)	(11,12)	
L1D -175>	(170,6)	(175,62)	(-285,55)	(-286,31)	(1,68)	(176,15)	(0,19)	(6,15)	(11,8)	(16,1)	(111,5)	(10,26)	(-21,9)	(126,2)	(174,6)	(-11,3)	
L1D -174>	(1,74)	(111,12)	(174,27)	(-284,31)	(16,1)	(175,9)	(10,22)	(-10,19)	(-11,7)	(105,5)	(0,12)	(93,7)	(11,15)	(124,4)	(-179,8)	(-7,6)	
L1D -173>	(1,67)	(-284,38)	(173,36)	(111,5)	(-110,1)	(11,19)	(0,17)	(172,24)	(5,10)	(-11,3)	(178,6)	(-179,2)	(-283,42)	(-10,4)	(10,31)	(33,2)	
L1D -172>	(172,66)	(1,65)	(-180,4)	(173,1)	(-283,9)	(0,12)	(105,3)	(3,4)	(288,9)	(166,2)	(201,3)	(171,3)	(10,29)	(177,17)	(11,11)	(-110,3)	
L1D -171>	(1,83)	(171,75)	(-281,74)	(110,11)	(-11,4)	(11,25)	(-10,21)	(111,4)	(16,3)	(10,31)	(0,13)	(6,4)	(121,5)	(165,5)	(282,1)	(166,9)	
L1D -170>	(110,23)	(-281,69)	(0,10)	(111,19)	(170,45)	(-10,25)	(11,20)	(-280,9)	(169,10)	(1,84)	(353,9)	(171,14)	(10,22)	(-11,11)	(128,1)	(160,2)	
L1D -169>	(20,1)	(-279,47)	(169,35)	(6,14)	(0,18)	(-280,44)	(-11,25)	(110,4)	(168,14)	(5,5)	(1,75)	(11,23)	(170,10)	(285,11)	(-5,7)	(10,23)	
L1D -168>	(11,9)	(-279,39)	(5,19)	(168,52)	(-288,1)	(-11,49)	(-299,15)	(-278,9)	(0,14)	(1,82)	(278,5)	(93,3)	(279,3)	(10,31)	(174,3)	(-21,5)	
L1D -167>	(353,12)	(-11,12)	(0,8)	(1,90)	(-300,24)	(105,6)	(190,1)	(167,18)	(-5,8)	(11,7)	(5,12)	(166,10)	(-299,7)	(10,33)	(283,8)	(-277,9)	
L1D -166>	(166,39)	(1,100)	(-276,20)	(10,2)	(-11,17)	(150,2)	(131,2)	(11,52)	(111,5)	(5,16)	(277,8)	(-277,8)	(-5,3)	(161,2)	(-10,3)	(0,5)	
L1D -165>	(5,17)	(165,39)	(116,7)	(-276,51)	(-297,10)	(1,91)	(0,11)	(110,6)	(11,33)	(10,37)	(-275,9)	(-298,4)	(-5,11)	(-11,18)	(20,1)	(209,12)	
L1D -164>	(259,8)	(164,37)	(11,16)	(-274,45)	(0,8)	(31,1)	(-275,17)	(1,95)	(6,17)	(-11,17)	(148,2)	(5,9)	(353,7)	(10,32)	(-12,4)	(111,3)	
L1D -163>	(1,102)	(-11,10)	(162,10)	(163,28)	(-274,31)	(-273,15)	(164,1)	(353,15)	(0,7)	(-295,27)	(-10,5)	(10,39)	(5,14)	(-296,7)	(11,12)	(285,2)	
L1D -162>	(162,34)	(116,1)	(11,18)	(-11,19)	(111,3)	(10,35)	(4,2)	(1,114)	(353,14)	(161,8)	(0,8)	(5,9)	(-5,5)	(267,3)	(-272,7)	(-273,7)	
L1D -161>	(0,12)	(-15,4)	(-5,13)	(161,55)	(1,109)	(10,47)	(11,47)	(282,1)	(-11,11)	(132,2)	(353,19)	(-272,3)	(160,9)	(6,16)	(266,2)	(-271,10)	
L1D -160>	(0,4)	(160,30)	(1,68)	(-271,28)	(-270,29)	(111,8)	(204,1)	(-292,4)	(-10,5)	(5,11)	(110,7)	(16,4)	(-11,9)	(10,12)	(11,9)	(4,1)	
L1D -159>	(10,41)	(-291,4)	(5,14)	(158,9)	(-270,19)	(0,9)	(-269,28)	(110,6)	(11,14)	(-186,3)	(-11,12)	(353,16)	(159,53)	(-5,13)	(1,116)	(-16,1)	
L1D -158>	(1,118)	(158,38)	(110,7)	(-269,36)	(10,39)	(0,10)	(-268,21)	(-290,17)	(5,25)	(285,1)	(-11,25)	(11,9)	(-9,6)	(353,14)	(6,14)	(111,7)	
L1D -157>	(157,18)	(353,18)	(110,3)	(12,4)	(267,7)	(1,120)	(0,9)	(5,13)	(10,5)	(-5,8)	(11,12)	(156,11)	(-289,4)	(-130,1)	(17,2)	(-11,5)	
L1D -156>	(1,73)	(156,23)	(-267,5)	(-266,21)	(155,7)	(0,4)	(-11,7)	(10,19)	(11,10)	(5,12)	(6,12)	(266,2)	(22,2)	(353,11)	(-21,2)	(378,1)	
L1D -155>	(155,85)	(0,24)	(-266,68)	(-21,6)	(10,38)	(110,10)	(-11,1)	(-265,116)	(-286,4)	(11,20)	(1,117)	(116,6)	(353,24)	(-287,7)	(266,7)	(-10,9)	
L1D -154>	(220,9)	(-285,2)	(353,12)	(-10,3)	(-265,34)	(154,27)	(-264,12)	(5,4)	(0,8)	(1,83)	(105,2)	(-11,8)	(11,11)	(10,20)	(6,4)	(-15,2)	
L1D -153>	(-9,2)	(6,2)	(2,1)	(153,13)	(10,14)	(-263,27)	(-264,31)	(0,6)	(-284,15)	(1,91)	(-11,11)	(-5,8)	(152,5)	(-31,1)	(353,26)	(110,1)	
L1D -152>	(-5,6)	(6,13)	(-6,9)	(-11,6)	(10,12)	(152,30)	(1,116)	(-262,28)	(-263,9)	(7,2)	(0,8)	(11,7)	(353,29)	(151,7)	(-16,2)	(-10,4)	
L1D -151>	(151,21)	(146,9)	(-261,18)	(111,3)	(10,7)	(-64,1)	(-5,8)	(116,2)	(-262,26)	(6,11)	(1,105)	(-282,9)	(0,9)	(11,4)	(105,2)	(353,21)	
L1D -150>	(150,27)	(-261,54)	(-260,37)	(14,4)	(261,6)	(0,5)	(353,35)	(6,12)	(-11,18)	(10,13)	(287,3)	(5,1)	(100,4)	(1,111)	(11,20)	(-10,7)	
L1D -149>	(353,22)	(0,10)	(1,88)	(149,13)	(-260,30)	(-259,11)	(5,15)	(110,4)	(10,19)	(6,13)	(11,7)	(111,3)	(-5,5)	(275,1)	(-11,10)	(217,2)	
L1D -148>	(353,34)	(1,112)	(6,8)	(10,15)	(11,10)	(-258,10)	(148,16)	(111,7)	(-6,2)	(-20,2)	(5,7)	(-11,7)	(0,3)	(264,2)	(110,1)	(216,1)	
L1D -147>	(147,26)	(1,110)	(-280,12)	(5,10)	(-258,20)	(126,3)	(-257,23)	(217,5)	(-278,2)	(353,27)	(11,4)	(111,8)	(-5,2)	(354,4)	(10,17)	(6,2)	
L1D -146>	(146,10)	(11,6)	(-11,1)	(0,3)	(-256,6)	(-278,8)	(1,87)	(-3,2)	(-257,10)	(251,1)	(5,5)	(110,2)	(-279,9)	(141,1)	(353,28)	(354,1)	
L1D -145>	(145,19)	(1,101)	(-11,8)	(-256,22)	(354,5)	(-255,4)	(0,4)	(10,9)	(27,1)	(116,4)	(-5,8)	(-277,6)	(111,5)	(11,8)	(353,41)	(140,3)	
L1D -144>	(5,2)	(1,70)	(144,24)	(-277,6)	(-255,13)	(-254,21)	(354,3)	(0,2)	(353,20)	(10,10)	(11,6)	(-3,2)	(6,2)	(22,1)	(-276,1)	(-11,1)	
L1D -143>	(-274,3)	(10,13)	(1,119)	(11,28)	(-254,19)	(110,2)	(143,24)	(353,43)	(111,6)	(209,4)	(7,2)	(6,11)	(-11,8)	(0,4)	(116,5)	(-3,1)	
L1D -142>	(-5,7)	(354,6)	(-253,26)	(353,43)	(-274,5)	(142,31)	(-252,13)	(0,4)	(99,1)	(1,110)	(5,21)	(110,21)	(6,6)	(220,5)	(-26,3)	(10,13)	
L1D -141>	(141,15)	(-4,0)	(353,31)	(-11,7)	(-251,11)	(354,5)	(0,5)	(5,14)	(-252,27)	(117,2)	(11,12)	(110,3)	(1,65)	(6,1)	(109,2)	(140,5)	
L1D -140>	(140,21)	(-3,2)	(3,1)	(10,10)	(111,6)	(11,4)	(0,7)	(-11,5)	(1,66)	(139,1)	(110,2)	(6,4)	(86,1)	(-251,7)	(5,11)	(353,34)	
L1D -139>	(139,29)	(111,3)	(-11,15)	(-249,39)	(354,4)	(110,3)	(-271,6)	(391,1)	(5,10)	(0,5)	(1,95)	(353,44)	(11,10)	(116,8)	(-5,3)	(10,18)	
L1D -138>	(354,3)	(1,91)	(138,32)	(-249,38)	(353,44)	(5,1)	(-271,7)	(111,15)	(-248,9)	(-11,18)	(110,4)	(248,2)	(0,15)	(10,22)	(11,34)	(-270,11)	
L1D -137>	(144,1)	(353,57)	(137,55)	(-269,53)	(1,105)	(105,15)	(-247,11)	(-10,8)	(110,9)	(111,13)	(-5,9)	(218,7)	(-248,15)	(6,22)	(0,12)	(354,12)	
L1D -136>	(0,15)	(116,5)	(71,1)	(-268,8)	(5,17)	(1,96)	(136,44)	(111,9)	(110,12)	(104,6)	(-21,3)	(-247,33)	(-246,22)	(10,17)	(217,3)	(353,46)	
L1D -135>	(1,106)	(135,25)	(0,16)	(105,8)	(-267,2)	(-11,8)	(-246,9)	(11,7)	(10,25)	(5,8)	(-266,4)	(103,1)	(352,7)	(353,44)	(216,8)	(134,6)	
L1D -134>	(134,26)	(111,6)	(-42,2)	(-5,5)	(-6,6)	(10,16)	(353,35)	(50,1)	(-10,5)	(354,3)	(11,7)	(0,12)	(1,78)	(115,1)	(-11,8)	(219,1)	
L1D -133>	(133,32)	(353,61)	(-244,25)	(11,8)	(-10,4)	(110,6)	(5,15)	(-243,9)	(1,90)	(6,12)	(0,16)	(218,3)	(-6,6)	(-11,16)	(10,16)	(111,3)	
L1D -132>	(216,8)	(132,74)	(-263,11)	(110,37)	(109,9)	(-242,18)	(0,31)	(10,1)	(6,56)	(5,57)	(-11,34)	(198,7)	(217,35)	(1,66)	(105,13)	(353,72)	
L1D -131>	(5,61)	(-242,25)	(6,19)	(131,70)	(-241,70)	(105,18)	(0,21)	(-111,1)	(1,15)	(110,43)	(111,21)	(11,27)	(216,44)	(-263,23)	(10,31)	(107,6)	
L1D -130>	(130,71)	(10,31)	(256,1)	(-241,90)	(240,9)	(-11,20)	(-240,77)	(-5,8)	(5,20)	(0,18)	(-10,10)	(116,9)	(11,26)	(1,31)	(211,5)	(106,4)	
L1D -129>	(129,32)	(329,7)	(10,42)	(1,22)	(105,7)	(-240,52)	(0,31)	(-239,18)	(130,1)	(-11,24)	(-5,20)	(-6,22)	(11,31)	(6,16)	(-262,8)	(132,2)	
L1D -128>	(129,14)	(106,9)	(329,6)	(128,82)	(-239,70)	(-238,51)	(-5,14)	(0,56)	(-11,31)	(10,15)	(5,27)	(11,21)	(244,1)	(111,8)	(6,21)	(1,26)	
L1D -127>	(127,91)	(-281,7)	(0,38)	(243,10)	(-238,30)	(-237,31)	(111,84)	(1,32)	(116,22)	(-283,1)	(-10,24)	(11,44)	(6,77)	(100,10)	(110,35)	(-5,24)	
L1D -126>	(-236,39)	(-260,12)	(95,1)	(-259,11)	(110,115)	(218,19)	(-237,38)	(5,120)	(126,107)	(121,13)	(-11,31)	(6,45)	(0,36)	(105,44)	(219,15)	(1,18)	
L1D -125>	(235,11)	(0,17)	(5,53)	(111,21)	(-257,18)	(115,6)	(125,68)	(-236,61)	(-235,73)	(-256,7)	(1,35)	(6,2)	(10,30)	(-11,28)	(110,13)	(-10,11)	
L1D -124>	(1,65)	(124,45)	(-136,1)	(0,38)	(5,35)	(-234,46)	(93,7)	(-235,45)	(110,14)	(-11,25)	(329,8)	(10,44)	(-5,13)	(-10,18)	(11,26)	(101,7)	
L1D -123>	(1,43)	(123,67)	(111,43)	(122,1)	(0,26)	(-233,87)	(-234,88)	(233,6)	(-11,22)	(110,9)	(-255,19)	(-5,10)	(-10,22)	(48,4)	(10,64)	(11,30)	
L1D -122>	(-233,18)	(1,19)	(122,71)	(-264,6)	(-261,5)	(0,19)	(199,5)	(111,57)	(-5,5)	(-232,10)	(11,1)	(110,11)	(-288,6)	(-259,3)	(-253,5)	(206,8)	
L1D -121>	(121,49)	(-232,14)	(0,8)	(5,92)	(6,64)	(111,65)	(218,4)	(10,39)	(105,29)	(220,1)	(-253,8)	(-5,8)	(216,19)	(11,17)	(110,75)	(219,29)	
L1D -120>	(116,123)	(0,83)	(-251,11)	(216,5)	(-252,2)	(1,19)	(-253,7)	(110,47)	(5,59)	(105,15)	(120,58)	(-230,37)	(10,27)	(-231,24)	(-6,13)	(-5,18)	
L1D -119>	(119,49)	(0,46)	(-252,7)	(-230,43)	(-250,8)	(5,12)	(-229,45)	(111,9)	(110,7)	(115,100)	(-142,1)	(-5,5)	(-16,6)	(-11,8)	(10,14)	(1,28)	
L1D -118>	(114,79)	(0,49)	(118,33)	(6,1)	(-21,3)	(-250,3)	(-228,44)	(-229,30)	(111,6)	(-16,8)	(110,4)	(-5,11)	(10,17)	(-11,10)	(-6,3)	(1,16)	
L1D -117>	(117,73)	(-256,4)	(113,120)	(0,54)	(-10,21)	(10,22)	(-11,16)	(-227,5)	(-250,6)	(-228,41)	(183,4)	(6,29)	(111,58)	(5,3)	(1,31)	(-5,13)	
L1D -116>	(-273,1)	(0,29)	(111,101)	(116,65)	(6,63)	(105,53)	(5,117)	(110,62)	(-6,10)	(208,6)	(216,18)	(-5,13)	(214,20)	(218,13)	(192,8)	(-11,10)	
L1D -115>	(-11,17)	(115,42)	(-5,10)	(105,20)	(5,85)	(0,46)	(10,37)	(11,25)	(119,7)	(-225,1)	(-266,4)	(-247,19)	(110,45)	(-287,12)	(196,8)	(111,56)	
L1D -114>	(110,67)	(118,18)	(114,33)	(0,29)	(91,1)	(-6,11)	(-245,9)	(133,7)	(-246,31)	(-224,25)	(-225,28)	(103,27)	(106,6)	(-11,15)	(-5,13)	(-247,13)	
L1D -113>	(109,118)	(0,65)	(113,56)	(-244,14)	(117,59)	(11,1)	(-11,8)	(-223,30)	(-245,30)	(-246,26)	(-224,26)	(105,13)	(329,13)	(102,41)	(10,13)	(-10,8)	
L1D -112>	(-5,19)	(112,75)	(-10,11)	(-245,15)	(116,16)	(-6,1)	(-223,19)	(-246,8)	(-244,28)	(0,35)	(1,16)	(101,25)	(131,7)	(108,58)	(-11,16)	(-222,17)	
L1D -111>	(0,27)	(-242,6)	(211,1)	(111,109)	(-5,68)	(6,53)	(-243,15)	(116,62)	(-233,11)	(1,17)	(105,33)	(-260,6)	(5,38)	(110,20)	(-10,51)	(-11,17)	
L1D -110>	(6,11)	(-11,40)	(-116,1)	(111,27)	(-5,16)	(0,30)	(110,83)	(5,67)	(-111,16)	(-228,3)	(-233,2)	(115,17)	(-6,49)	(100,7)	(116,34)	(105,37)	
L1D -109>	(105,70)	(0,37)	(109,50)	(5,32)	(128,7)	(110,13)	(-11,11)	(100,4)	(329,3)	(1,10)	(113,24)	(6,17)	(111,3)	(98,12)	(-5,8)	(-171,1)	
L1D -108>	(108,42)	(112,19)	(0,41)	(109,10)	(2,7)	(97,8)	(-1,7)	(5,17)	(105,8)	(6,10)	(104,72)	(32,2)	(1,7)	(127,1)	(10,3)	(-11,10)	
L1D -107>	(107,122)	(111,32)	(0,35)	(108,33)	(104,15)	(103,73)	(-282,6)	(131,10)	(-262,8)	(5,28)	(96,18)	(105,55)	(-263,11)	(-11,25)	(-10,1)	(6,14)	
L1D -106>	(-11,12)	(116,14)	(-251,10)	(130,4)	(106,47)	(6,12)	(102,42)	(110,32)	(1,11)	(111,84)	(95,1)	(105,11)	(-10,107)	(5,24)	(0,22)	(113,3)	
L1D -105>	(105,101)	(106,25)	(-10,31)	(209,1)	(111,59)	(0,30)	(-6,32)	(116,45)	(101,45)	(-11,89)	(179,10)	(110,121)	(6,19)	(100,16)	(109,8)	(115,25)	
L1D -104>	(0,38)	(104,127)	(100,47)	(93,20)	(-111,11)	(-106,8)	(105,76)	(110,30)	(-116,11)	(5,35)	(103,20)	(108,23)	(-110,9)	(116,2)	(111,23)	(6,9)	
L1D -103>	(103,88)	(0,51)	(104,63)	(-106,22)	(-116,10)	(-111,13)	(99,87)	(113,11)	(-110,6)	(107,6)	(100,1)	(98,6)	(5,43)	(10,25)	(101,6)	(102,17)	
L1D -102>	(102,127)	(103,48)	(106,22)	(21,5)	(0,30)	(10,8)	(91,18)	(-10,1)	(7,5)	(-116,16)	(-106,5)	(98,27)	(6,32)	(5,30)	(-11,4)	(100,18)	
L1D -101>	(107,1)	(97,3)	(101,64)	(102,25)	(-246,1)	(5,19)	(90,9)	(100,12)	(111,13)	(6,10)	(-106,8)	(0,3)	(99,5)	(106,3)	(-10,8)	(105,8)	
L1D -100>	(127,5)	(100,122)	(-260,21)	(-5,12)	(115,11)	(111,102)	(99,12)	(116,18)	(-10,1)	(110,62)	(-11,42)	(96,31)	(6,40)	(203,2)	(5,60)	(0,32)	
L1D -99>	(99,97)	(103,13)	(100,32)	(116,10)	(-105,13)	(-121,16)	(0,33)	(95,61)	(105,11)	(110,21)	(98,19)	(-111,1)	(-110,20)	(88,20)	(-253,20)	(-116,9)	
L1D -98>	(5,10)	(0,26)	(98,72)	(99,21)	(-116,12)	(-121,1)	(95,8)	(-110,7)	(94,45)	(-254,11)	(-6,2)	(97,16)	(-11,2)	(10,3)	(87,6)	(-111,17)	
L1D -97>	(93,85)	(0,41)	(-111,25)	(97,95)	(11,6)	(98,43)	(96,19)	(-8,8)	(104,8)	(67,1)	(-5,13)	(6,7)	(-105,5)	(5,15)	(112,6)	(-121,8)	
L1D -96>	(-111,14)	(96,102)	(-251,14)	(-5,10)	(111,13)	(102,1)	(91,21)	(11,19)	(0,20)	(-121,16)	(95,19)	(85,37)	(97,44)	(92,21)	(15,5)	(-110,12)	
L1D -95>	(95,103)	(0,28)	(-293,20)	(96,16)	(-121,16)	(-116,12)	(-110,13)	(110,14)	(194,1)	(10,5)	(111,12)	(-254,7)	(-232,4)	(5,9)	(116,4)	(94,11)	
L1D -94>	(0,29)	(94,84)	(-6,10)	(89,12)	(111,17)	(98,19)	(121,4)	(90,74)	(95,34)	(192,9)	(-121,8)	(-116,5)	(93,14)	(-258,1)	(83,17)	(-5,23)	
L1D -93>	(93,80)	(123,1)	(0,33)	(-111,14)	(-259,26)	(89,66)	(-121,9)	(94,25)	(10,5)	(-116,11)	(5,22)	(82,21)	(-6,6)	(-5,9)	(92,15)	(97,21)	
L1D -92>	(-260,36)	(0,47)	(92,115)	(91,42)	(-236,9)	(-247,4)	(-110,18)	(-121,7)	(-115,12)	(110,1)	(88,82)	(10,5)	(90,20)	(115,5)	(11,25)	(5,25)	
L1D -91>	(90,13)	(-10,1)	(114,10)	(0,34)	(95,25)	(10,37)	(87,109)	(89,15)	(91,122)	(80,24)	(-261,20)	(-245,4)	(106,35)	(-247,8)	(92,23)	(6,25)	
L1D -90>	(0,48)	(-10,1)	(90,93)	(105,7)	(91,17)	(111,16)	(94,15)	(113,3)	(116,7)	(5,22)	(86,63)	(-262,24)	(-238,3)	(-293,5)	(89,9)	(-5,17)	
L1D -89>	(113,12)	(85,48)	(89,122)	(0,41)	(93,21)	(-5,28)	(1,5)	(-10,6)	(88,24)	(-6,20)	(95,9)	(78,31)	(90,33)	(110,37)	(170,1)	(-299,4)	
L1D -88>	(0,39)	(-121,19)	(89,42)	(88,101)	(103,1)	(111,7)	(98,10)	(5,34)	(-242,15)	(84,72)	(87,14)	(92,19)	(77,13)	(-10,8)	(83,10)	(-111,24)	
L1D -87>	(-5,7)	(0,43)	(87,48)	(84,2)	(-116,9)	(-111,7)	(-121,8)	(83,66)	(-265,17)	(76,15)	(6,5)	(102,7)	(1,2)	(85,8)	(91,2)	(88,11)	
L1D -86>	(90,21)	(87,22)	(86,62)	(75,25)	(83,20)	(84,18)	(85,14)	(111,6)	(-1,3)	(82,93)	(27,2)	(6,12)	(122,1)	(5,2)	(0,25)	(-111,4)	
L1D -85>	(81,58)	(54,5)	(89,10)	(85,97)	(-121,45)	(-243,1)	(-10,9)	(82,11)	(0,43)	(110,4)	(-267,6)	(84,11)	(86,20)	(83,16)	(-116,21)	(-127,10)	
L1D -84>	(0,31)	(84,82)	(99,11)	(-100,4)	(80,63)	(-69,13)	(5,25)	(10,5)	(83,18)	(6,20)	(73,13)	(-49,3)	(85,16)	(116,3)	(-126,1)	(82,7)	
L1D -83>	(79,85)	(83,99)	(80,9)	(114,1)	(98,19)	(84,37)	(78,21)	(5,25)	(72,46)	(-110,10)	(0,44)	(-244,11)	(87,40)	(-121,18)	(77,3)	(82,12)	
L1D -82>	(71,6)	(0,41)	(-270,39)	(82,56)	(83,58)	(80,22)	(86,23)	(78,85)	(52,1)	(6,37)	(79,17)	(97,20)	(89,5)	(-5,9)	(5,16)	(-246,9)	
L1D -81>	(0,36)	(-136,4)	(85,25)	(77,88)	(59,1)	(81,79)	(70,39)	(5,9)	(79,16)	(-316,3)	(80,23)	(78,22)	(82,21)	(6,14)	(-115,20)	(-131,10)	
L1D -80>	(0,70)	(-11,1)	(84,38)	(5,13)	(80,101)	(90,21)	(77,10)	(79,24)	(6,13)	(11,16)	(69,15)	(-5,8)	(76,108)	(-276,4)	(-272,11)	(81,27)	
L1D -79>	(79,76)	(0,25)	(11,11)	(99,2)	(83,11)	(80,3)	(49,1)	(5,7)	(68,15)	(-243,1)	(-261,3)	(-105,3)	(85,2)	(6,12)	(94,7)	(75,52)	
L1D -78>	(0,76)	(5,31)	(75,17)	(79,51)	(78,95)	(67,35)	(83,11)	(-105,13)	(-121,26)	(-274,40)	(-5,16)	(6,28)	(77,21)	(74,115)	(-116,18)	(49,1)	
L1D -77>	(-5,44)	(-122,9)	(77,83)	(0,76)	(78,32)	(66,2)	(75,36)	(6,18)	(-6,8)	(5,46)	(30,7)	(73,64)	(83,3)	(-110,6)	(-1,3)	(81,4)	
L1D -76>	(0,34)	(72,71)	(123,1)	(75,9)	(5,16)	(1,2)	(-121,10)	(73,4)	(65,11)	(80,16)	(-116,14)	(76,28)	(77,4)	(-73,8)	(-5,4)	(74,7)	
L1D -75>	(0,60)	(90,1)	(72,21)	(79,49)	(76,47)	(75,106)	(6,28)	(71,123)	(83,2)	(73,17)	(64,23)	(-132,2)	(-137,2)	(74,17)	(-277,19)	(-121,3)	
L1D -74>	(70,120)	(74,115)	(78,49)	(0,51)	(10,1)	(63,18)	(72,20)	(-115,16)	(-116,10)	(-110,10)	(-111,5)	(-278,34)	(5,11)	(75,22)	(-74,11)	(93,10)	
L1D -73>	(5,27)	(69,75)	(73,80)	(-74,19)	(70,21)	(-279,1)	(-11,3)	(72,19)	(74,29)	(-121,16)	(-392,3)	(-110,21)	(68,6)	(17,5)	(0,43)	(62,43)	
L1D -72>	(72,79)	(21,7)	(0,50)	(87,10)	(73,24)	(6,42)	(70,23)	(76,39)	(11,1)	(-5,7)	(-6,6)	(-116,5)	(68,92)	(69,7)	(61,31)	(-75,7)	
L1D -71>	(71,87)	(60,22)	(72,28)	(67,92)	(42,1)	(0,63)	(70,23)	(69,24)	(-281,26)	(5,3)	(75,32)	(68,12)	(10,13)	(-75,15)	(-126,2)	(-5,7)	
L1D -70>	(70,93)	(0,46)	(10,17)	(6,28)	(71,32)	(85,20)	(-291,3)	(5,13)	(-121,15)	(59,19)	(66,91)	(69,18)	(74,24)	(105,11)	(68,17)	(93,1)	
L1D -69>	(0,43)	(69,121)	(70,30)	(-278,8)	(-251,12)	(67,21)	(-116,8)	(65,74)	(5,45)	(-283,32)	(6,1)	(-42,22)	(-36,12)	(-31,8)	(10,7)	(58,28)	
L1D -68>	(-11,5)	(68,104)	(0,12)	(57,50)	(37,1)	(6,14)	(64,52)	(65,13)	(10,4)	(5,35)	(72,7)	(11,8)	(69,28)	(66,22)	(-5,4)	(-121,3)	
L1D -67>	(63,89)	(0,38)	(67,90)	(5,23)	(116,9)	(20,9)	(66,17)	(68,40)	(21,1)	(-21,7)	(71,42)	(11,9)	(62,4)	(65,24)	(64,11)	(56,17)	
L1D -66>	(-78,25)	(81,11)	(0,47)	(65,12)	(5,47)	(22,4)	(64,13)	(66,76)	(-137,9)	(-143,14)	(-32,5)	(70,11)	(67,41)	(76,1)	(62,100)	(-379,5)	
L1D -65>	(1,7)	(65,82)	(0,40)	(101,5)	(66,52)	(-247,7)	(64,23)	(6,12)	(63,28)	(-78,22)	(54,22)	(-94,1)	(-287,27)	(69,23)	(61,96)	(60,18)	
L1D -64>	(0,72)	(65,56)	(70,11)	(64,107)	(34,1)	(60,89)	(-385,7)	(-395,4)	(74,15)	(-110,8)	(-383,6)	(5,11)	(-288,26)	(63,23)	(-121,7)	(-115,10)	
L1D -63>	(63,122)	(67,16)	(0,48)	(59,69)	(78,12)	(113,5)	(64,77)	(-21,6)	(-79,20)	(57,6)	(93,1)	(6,12)	(11,17)	(58,14)	(52,8)	(61,25)	
L1D -62>	(51,34)	(59,13)	(62,82)	(0,32)	(60,17)	(58,35)	(57,5)	(77,24)	(110,7)	(61,18)	(-6,3)	(63,44)	(-111,3)	(5,18)	(-290,1)	(73,4)	
L1D -61>	(-269,4)	(61,74)	(0,53)	(56,1)	(59,17)	(5,27)	(60,14)	(6,5)	(11,13)	(-120,8)	(57,118)	(91,6)	(-131,3)	(65,11)	(62,33)	(76,19)	
L1D -60>	(64,32)	(0,63)	(56,102)	(60,87)	(6,15)	(49,19)	(79,13)	(58,8)	(-268,8)	(75,16)	(11,1)	(-5,9)	(61,47)	(-115,4)	(-292,34)	(5,16)	
L1D -59>	(0,51)	(55,87)	(59,61)	(58,10)	(-390,12)	(60,30)	(5,22)	(17,3)	(-293,22)	(65,1)	(-116,14)	(-5,4)	(-389,3)	(63,7)	(48,11)	(-106,2)	
L1D -58>	(58,98)	(55,10)	(-294,23)	(-116,10)	(59,55)	(54,86)	(47,17)	(5,27)	(73,6)	(65,1)	(-82,18)	(56,14)	(0,61)	(1,7)	(64,4)	(6,39)	
L1D -57>	(0,86)	(6,5)	(57,64)	(-388,18)	(76,9)	(-82,12)	(61,32)	(-335,3)	(56,15)	(-5,15)	(58,23)	(46,9)	(55,16)	(5,11)	(53,125)	(-295,1)	
L1D -56>	(-6,7)	(56,38)	(52,75)	(0,68)	(60,32)	(54,5)	(63,8)	(53,2)	(71,1)	(55,5)	(-137,1)	(27,2)	(66,4)	(6,1)	(57,23)	(-5,6)	
L1D -55>	(-110,5)	(55,47)	(6,6)	(26,3)	(59,30)	(-5,13)	(54,14)	(5,6)	(44,17)	(0,41)	(51,68)	(70,5)	(-297,1)	(10,9)	(56,16)	(-121,5)	
L1D -54>	(54,48)	(50,68)	(51,4)	(-198,1)	(69,5)	(55,16)	(0,38)	(11,4)	(-84,6)	(5,12)	(-21,3)	(49,6)	(-5,8)	(58,16)	(60,9)	(53,5)	
L1D -53>	(49,123)	(53,108)	(5,37)	(51,42)	(52,10)	(54,51)	(0,103)	(-5,13)	(57,76)	(-299,34)	(81,5)	(42,44)	(68,1)	(-105,9)	(50,13)	(-116,24)	
L1D -52>	(116,1)	(52,38)	(-11,3)	(49,8)	(5,8)	(6,16)	(56,34)	(51,20)	(-277,2)	(0,49)	(71,9)	(-5,9)	(48,71)	(22,3)	(50,7)	(-383,5)	
L1D -51>	(47,127)	(0,107)	(5,19)	(52,34)	(-10,4)	(50,28)	(6,28)	(49,25)	(99,8)	(51,69)	(40,20)	(55,34)	(66,15)	(-393,7)	(44,6)	(10,1)	
L1D -50>	(-110,9)	(0,62)	(46,55)	(50,74)	(65,5)	(51,25)	(5,17)	(39,19)	(60,20)	(49,11)	(54,12)	(48,13)	(-86,3)	(-278,3)	(-308,4)	(-21,1)	
L1D -49>	(53,41)	(49,76)	(50,49)	(45,79)	(0,72)	(-111,7)	(-105,4)	(-67,3)	(44,15)	(46,8)	(-10,1)	(11,7)	(10,7)	(-5,11)	(-115,9)	(-303,5)	
L1D -48>	(48,111)	(0,76)	(37,9)	(47,56)	(43,15)	(45,12)	(-87,1)	(49,31)	(44,67)	(-304,19)	(46,27)	(111,2)	(5,4)	(52,30)	(-5,8)	(6,2)	
L1D -47>	(-111,1)	(47,87)	(0,53)	(45,32)	(46,46)	(48,18)	(43,49)	(44,15)	(42,4)	(62,2)	(51,11)	(-5,8)	(6,11)	(-87,5)	(1,2)	(36,18)	
L1D -46>	(5,9)	(46,126)	(44,22)	(0,81)	(45,45)	(43,13)	(42,48)	(47,27)	(48,8)	(56,5)	(6,21)	(61,8)	(50,7)	(35,8)	(27,1)	(-101,4)	
L1D -45>	(42,21)	(49,34)	(44,68)	(0,64)	(45,101)	(43,30)	(34,16)	(-283,3)	(46,51)	(47,12)	(-307,29)	(64,6)	(55,13)	(-247,6)	(41,46)	(15,2)	
L1D -44>	(59,10)	(33,12)	(46,17)	(45,59)	(47,9)	(44,98)	(0,57)	(43,35)	(48,44)	(-89,1)	(42,18)	(16,2)	(-116,4)	(40,42)	(63,5)	(6,10)	
L1D -43>	(44,62)	(42,71)	(43,116)	(0,80)	(5,19)	(47,27)	(48,13)	(49,4)	(-5,6)	(41,21)	(93,5)	(38,1)	(53,10)	(39,74)	(11,17)	(32,7)	
L1D -42>	(44,9)	(42,89)	(48,39)	(0,64)	(45,5)	(38,39)	(31,11)	(41,14)	(5,11)	(57,2)	(43,25)	(-90,5)	(40,6)	(-5,8)	(92,3)	(-1,2)	
L1D -41>	(11,33)	(-90,22)	(-311,34)	(0,66)	(-98,1)	(41,122)	(10,17)	(51,13)	(42,83)	(40,39)	(45,10)	(-5,20)	(38,13)	(30,21)	(37,103)	(39,31)	
L1D -40>	(40,108)	(39,78)	(55,1)	(0,51)	(35,23)	(37,18)	(-6,5)	(34,7)	(-370,6)	(41,46)	(38,16)	(36,44)	(5,5)	(115,6)	(-5,9)	(44,19)	
L1D -39>	(38,50)	(39,127)	(37,31)	(36,16)	(40,43)	(0,40)	(35,60)	(43,16)	(49,10)	(10,18)	(-116,10)	(-313,20)	(33,1)	(54,9)	(5,8)	(9,3)	
L1D -38>	(48,1)	(11,2)	(36,12)	(0,49)	(-369,2)	(38,112)	(35,13)	(37,42)	(34,54)	(40,8)	(39,18)	(-116,6)	(42,15)	(57,4)	(6,13)	(27,6)	
L1D -37>	(1,4)	(39,17)	(36,73)	(0,73)	(35,32)	(38,49)	(33,52)	(37,121)	(34,27)	(-315,15)	(5,12)	(-92,16)	(26,8)	(48,5)	(53,1)	(41,14)	
L1D -36>	(32,96)	(-100,3)	(38,49)	(37,43)	(35,41)	(36,90)	(0,78)	(40,13)	(39,11)	(111,1)	(5,15)	(51,8)	(-115,7)	(33,7)	(-93,11)	(34,10)	
L1D -35>	(0,100)	(1,1)	(34,61)	(35,112)	(33,16)	(-367,15)	(36,59)	(37,14)	(31,121)	(39,29)	(-5,6)	(-6,5)	(5,19)	(-317,29)	(41,6)	(-93,15)	
L1D -34>	(31,5)	(36,8)	(34,94)	(40,37)	(5,17)	(35,18)	(0,46)	(6,11)	(-116,4)	(38,4)	(44,13)	(-354,5)	(30,67)	(32,6)	(-94,8)	(23,19)	
L1D -33>	(22,6)	(29,95)	(0,46)	(19,11)	(34,39)	(33,70)	(37,20)	(7,95)	(11,10)	(-319,30)	(-95,1)	(6,19)	(5,13)	(-116,8)	(-295,3)	(32,18)	
L1D -32>	(36,105)	(32,110)	(1,16)	(33,38)	(21,53)	(28,120)	(29,19)	(-5,13)	(0,86)	(31,16)	(11,108)	(-17,1)	(10,30)	(-116,21)	(6,10)	(51,17)	
L1D -31>	(0,52)	(20,34)	(31,46)	(11,70)	(30,8)	(-362,14)	(-318,12)	(32,25)	(35,41)	(27,55)	(-68,1)	(7,62)	(282,6)	(112,8)	(50,8)	(26,7)	
L1D -30>	(30,45)	(6,22)	(26,110)	(11,8)	(-322,1)	(31,25)	(-75,4)	(29,16)	(0,75)	(34,27)	(-59,3)	(19,14)	(-96,13)	(-97,4)	(36,5)	(7,95)	
L1D -29>	(7,28)	(27,10)	(30,16)	(-116,18)	(33,29)	(-105,3)	(29,59)	(-111,4)	(18,11)	(0,50)	(-58,1)	(39,7)	(-121,8)	(5,28)	(25,75)	(-99,3)	
L1D -28>	(0,47)	(24,101)	(47,9)	(43,5)	(5,28)	(26,17)	(28,47)	(29,19)	(32,28)	(6,1)	(23,5)	(-97,13)	(27,13)	(-324,25)	(-121,5)	(-5,9)	
L1D -27>	(10,3)	(0,58)	(23,80)	(31,40)	(27,93)	(1,8)	(28,1)	(24,122)	(5,25)	(21,20)	(26,26)	(-116,14)	(-5,5)	(-358,2)	(-122,3)	(-359,6)	
L1D -26>	(26,56)	(24,93)	(21,12)	(22,32)	(30,13)	(15,6)	(0,13)	(25,5)	(27,10)	(-34,2)	(-85,2)	(-326,4)	(23,2)	(1,5)	(-5,1)	(45,2)	
L1D -25>	(21,83)	(55,1)	(0,56)	(5,28)	(24,83)	(25,52)	(14,12)	(22,6)	(44,2)	(26,21)	(35,5)	(-356,4)	(-116,4)	(23,26)	(20,19)	(29,22)	
L1D -24>	(0,11)	(-322,3)	(20,22)	(24,68)	(26,75)	(21,27)	(23,3)	(22,16)	(27,35)	(28,10)	(25,29)	(2,8)	(-1,2)	(4,30)	(-328,1)	(1,9)	
L1D -23>	(0,45)	(23,70)	(1,42)	(-10,6)	(-331,5)	(21,9)	(-110,3)	(-99,1)	(24,35)	(27,3)	(11,12)	(19,45)	(-6,6)	(20,12)	(22,11)	(25,14)	
L1D -22>	(236,1)	(255,10)	(22,84)	(1,85)	(27,31)	(282,29)	(21,34)	(20,22)	(26,89)	(-11,4)	(-10,26)	(270,9)	(11,96)	(264,17)	(25,25)	(24,41)	
L1D -21>	(25,40)	(1,81)	(10,17)	(11,127)	(21,51)	(26,30)	(24,18)	(-3,22)	(22,48)	(-357,1)	(27,14)	(19,3)	(20,10)	(283,10)	(248,11)	(0,30)	
L1D -20>	(21,38)	(11,83)	(0,12)	(-106,2)	(5,7)	(17,4)	(20,30)	(-4,18)	(1,26)	(26,11)	(-1,32)	(4,20)	(22,5)	(24,9)	(-5,18)	(25,28)	
L1D -19>	(38,0)	(19,1)	(1,71)	(-3,1)	(-4,1)	(-333,0)	(-156,0)	(6,2)	(8,1)	(29,0)	(-6,0)	(20,1)	(-101,0)	(5,0)	(0,1)	(17,1)	
L1D -18>	(18,9)	(-1,7)	(4,101)	(-3,8)	(-4,2)	(2,6)	(1,19)	(395,1)	(0,4)	(-102,2)	(22,7)	(-334,2)	(16,2)	(19,4)	(10,1)	(33,3)	
L1D -17>	(-4,98)	(-3,51)	(16,32)	(15,9)	(-1,108)	(0,71)	(136,6)	(17,76)	(27,15)	(23,8)	(6,12)	(1,33)	(24,8)	(18,47)	(-335,22)	(-110,1)	
L1D -16>	(1,67)	(134,2)	(11,5)	(16,53)	(0,34)	(21,1)	(-4,11)	(2,17)	(17,8)	(14,5)	(31,1)	(144,1)	(-336,2)	(-103,2)	(15,3)	(-110,2)	
L1D -15>	(-216,1)	(0,52)	(121,1)	(1,82)	(15,2)	(16,19)	(25,1)	(67,1)	(-110,1)	(6,0)	(10,0)	(-65,0)	(45,0)	(-111,0)	(5,0)	(-92,0)	
L1D -14>	(-65,1)	(2,11)	(1,84)	(-105,1)	(16,40)	(14,74)	(0,23)	(15,8)	(13,6)	(-100,1)	(-44,2)	(-99,1)	(17,7)	(-104,1)	(-97,1)	(-102,2)	
L1D -13>	(356,0)	(-6,0)	(-345,3)	(16,2)	(13,23)	(4,69)	(122,0)	(15,3)	(1,25)	(12,1)	(-104,1)	(17,0)	(2,7)	(5,0)	(0,1)	(433,0)	
L1D -12>	(1,44)	(0,23)	(-8,7)	(12,79)	(16,8)	(15,14)	(26,7)	(14,11)	(11,13)	(366,1)	(-2,8)	(-105,3)	(243,1)	(21,11)	(13,4)	(2,6)	
L1D -11>	(1,118)	(111,13)	(11,87)	(236,3)	(21,35)	(6,20)	(-372,1)	(0,25)	(-10,40)	(15,48)	(10,23)	(-235,4)	(-11,17)	(194,2)	(13,12)	(25,13)	
L1D -10>	(0,15)	(-6,117)	(1,14)	(11,108)	(2,87)	(375,1)	(110,33)	(21,48)	(-277,2)	(234,4)	(10,19)	(5,22)	(-10,58)	(4,66)	(-252,2)	(-244,3)	
L1D -9>	(1,85)	(-409,1)	(24,1)	(353,1)	(-5,1)	(11,1)	(0,1)	(10,2)	(15,1)	(-118,0)	(-40,0)	(9,0)	(4,1)	(36,0)	(-343,0)	(-120,0)	
L1D -8>	(1,100)	(0,21)	(-3,9)	(-8,104)	(384,1)	(18,2)	(-2,15)	(202,1)	(58,1)	(42,1)	(-11,37)	(-121,1)	(-1,7)	(2,2)	(16,8)	(4,103)	
L1D -7>	(4,42)	(0,114)	(423,2)	(-105,2)	(382,1)	(3,29)	(-22,1)	(16,18)	(374,1)	(-348,1)	(-11,13)	(-103,1)	(1,84)	(344,11)	(7,1)	(-1,4)	
L1D -6>	(-10,2)	(-11,2)	(2,8)	(-221,2)	(116,2)	(0,5)	(6,4)	(1,115)	(4,25)	(28,1)	(-1,12)	(362,1)	(-105,1)	(-110,3)	(344,4)	(123,1)	
L1D -5>	(-3,3)	(111,1)	(2,14)	(0,2)	(-111,2)	(5,2)	(-6,1)	(-8,1)	(1,77)	(6,6)	(354,1)	(-2,2)	(63,1)	(-264,1)	(110,8)	(-259,1)	
L1D -4>	(-4,4)	(-3,10)	(-2,5)	(-21,5)	(21,6)	(24,7)	(-11,15)	(-18,1)	(-22,5)	(0,1)	(6,6)	(26,7)	(20,6)	(3,24)	(25,6)	(1,101)	
L1D -3>	(20,6)	(0,126)	(25,18)	(390,2)	(-6,12)	(1,49)	(-4,9)	(-24,9)	(-5,19)	(10,4)	(4,8)	(24,8)	(358,3)	(380,2)	(21,6)	(3,52)	
L1D -2>	(379,1)	(1,107)	(0,7)	(-1,2)	(355,2)	(400,1)	(-7,1)	(3,54)	(-24,2)	(340,8)	(-6,3)	(-23,1)	(-3,1)	(2,4)	(-15,1)	(-2,61)	
L1D -1>	(-1,22)	(359,2)	(3,1)	(-6,4)	(1,81)	(-63,1)	(0,67)	(-29,2)	(-64,1)	(-24,1)	(344,1)	(-30,1)	(2,1)	(22,2)	(-110,1)	(-95,0)	
L1D 0>	(351,4)	(0,102)	(-1,6)	(-9,5)	(15,6)	(7,1)	(10,2)	(2,8)	(-111,1)	(3,2)	(344,2)	(-19,4)	(-7,9)	(-3,3)	(-2,3)	(1,24)	
L1D 1>	(4,1)	(2,6)	(20,1)	(1,101)	(-6,1)	(378,2)	(-1,8)	(8,2)	(3,3)	(13,1)	(0,14)	(-5,5)	(388,1)	(15,4)	(347,3)	(5,3)	
L1D 2>	(1,103)	(364,2)	(2,3)	(340,2)	(367,2)	(341,2)	(-4,15)	(-7,17)	(-3,2)	(363,1)	(357,1)	(0,17)	(353,4)	(-2,4)	(399,1)	(365,1)	
L1D 3>	(1,13)	(-3,26)	(0,78)	(-99,1)	(-5,4)	(363,1)	(-9,54)	(7,6)	(-7,20)	(-13,73)	(357,1)	(12,1)	(408,1)	(-11,24)	(349,1)	(353,2)	
L1D 4>	(1,76)	(-105,1)	(-15,28)	(-28,1)	(-36,1)	(-45,2)	(0,1)	(-47,1)	(-40,1)	(-49,1)	(-4,2)	(-22,1)	(-5,1)	(-6,16)	(10,1)	(-7,18)	
L1D 5>	(-5,21)	(0,8)	(-121,5)	(197,2)	(1,7)	(105,7)	(-116,10)	(6,2)	(116,4)	(5,18)	(111,6)	(110,9)	(-110,5)	(-6,116)	(-25,1)	(10,12)	
L1D 6>	(-116,6)	(-7,9)	(209,2)	(105,10)	(-6,8)	(102,1)	(7,3)	(115,5)	(-111,9)	(-5,1)	(-1,8)	(1,14)	(0,6)	(-11,2)	(110,12)	(5,75)	
L1D 7>	(-112,1)	(-7,7)	(-1,2)	(-5,14)	(-29,2)	(145,1)	(-2,114)	(-75,1)	(1,5)	(-80,1)	(-6,3)	(8,1)	(-19,1)	(-4,5)	(0,2)	(4,1)	
L1D 8>	(1,75)	(-335,1)	(-9,0)	(-1,0)	(-168,0)	(15,0)	(-14,0)	(-16,5)	(-8,2)	(7,0)	(8,1)	(-119,0)	(-21,0)	(-25,0)	(0,1)	(4,0)	
L1D 9>	(275,4)	(-9,49)	(1,105)	(0,23)	(-16,20)	(-8,87)	(-10,38)	(-2,44)	(-21,7)	(-1,9)	(219,1)	(11,29)	(-408,13)	(-376,5)	(271,5)	(-4,3)	
L1D 10>	(-382,1)	(0,13)	(1,28)	(125,2)	(-10,26)	(-1,6)	(262,2)	(-20,6)	(2,28)	(-11,112)	(158,2)	(11,10)	(-8,8)	(-21,22)	(10,10)	(232,4)	
L1D 11>	(-396,0)	(10,64)	(281,0)	(-429,0)	(-11,3)	(-10,24)	(0,1)	(251,1)	(224,0)	(220,1)	(229,1)	(11,1)	(-1,0)	(257,0)	(-21,2)	(-122,1)	
L1D 12>	(1,3)	(-335,2)	(-20,2)	(-21,2)	(-12,32)	(-11,72)	(99,2)	(-117,2)	(-25,2)	(5,2)	(0,24)	(10,4)	(-344,1)	(-116,1)	(2,3)	(7,1)	
L1D 13>	(2,1)	(7,1)	(-18,2)	(-13,7)	(-12,99)	(-11,3)	(0,39)	(-7,20)	(-33,1)	(-118,1)	(-337,3)	(-3,6)	(10,2)	(-336,1)	(-130,1)	(-119,1)	
L1D 14>	(-130,2)	(-116,1)	(-14,32)	(-13,122)	(-46,2)	(0,20)	(-8,7)	(1,4)	(-7,17)	(-108,3)	(2,5)	(-38,1)	(-12,7)	(-76,2)	(-120,5)	(-3,2)	
L1D 15>	(-1,51)	(-14,75)	(0,52)	(-7,8)	(-350,3)	(-15,12)	(-8,3)	(-31,1)	(2,4)	(-68,1)	(-64,1)	(-120,3)	(-121,1)	(-400,1)	(1,5)	(-50,1)	
L1D 16>	(-105,2)	(0,59)	(-7,87)	(-8,22)	(-9,11)	(-111,2)	(-15,55)	(7,2)	(-14,99)	(144,2)	(-1,16)	(-126,2)	(159,2)	(-3,2)	(100,1)	(-121,1)	
L1D 17>	(1,8)	(-9,21)	(-8,76)	(-11,7)	(-17,17)	(-407,1)	(0,16)	(-397,2)	(-10,1)	(15,3)	(7,7)	(4,10)	(-6,4)	(-22,4)	(-12,8)	(-7,3)	
L1D 18>	(4,20)	(-18,66)	(-7,8)	(0,48)	(-8,21)	(1,28)	(-13,20)	(-11,18)	(-123,6)	(-1,10)	(-128,6)	(-9,8)	(21,2)	(-5,3)	(-23,1)	(-350,7)	
L1D 19>	(0,31)	(1,22)	(-19,71)	(-25,3)	(-18,7)	(-11,16)	(221,1)	(-9,1)	(15,6)	(-7,7)	(-15,1)	(-129,2)	(-14,12)	(-69,2)	(4,20)	(-21,2)	
L1D 20>	(-379,1)	(1,14)	(-20,87)	(-371,5)	(-17,19)	(-7,2)	(-11,8)	(-21,7)	(4,11)	(-385,1)	(264,2)	(-16,21)	(0,11)	(3,4)	(5,3)	(-352,2)	
L1D 21>	(-20,39)	(-21,89)	(-17,18)	(1,33)	(5,8)	(378,2)	(11,4)	(-25,1)	(0,9)	(10,2)	(-18,10)	(-343,1)	(4,6)	(-399,4)	(339,1)	(-11,11)	
L1D 22>	(375,1)	(-22,94)	(-18,16)	(335,4)	(-19,21)	(4,14)	(-20,15)	(1,12)	(10,23)	(-25,25)	(-11,13)	(-127,2)	(0,17)	(373,4)	(-7,4)	(-121,2)	
L1D 23>	(4,22)	(-19,15)	(1,25)	(0,41)	(-7,15)	(3,9)	(-23,88)	(-379,4)	(-354,1)	(-357,8)	(-11,8)	(-20,7)	(-18,19)	(-22,5)	(-355,2)	(-14,6)	
L1D 24>	(-14,5)	(-339,3)	(-13,6)	(11,1)	(-152,1)	(3,3)	(4,1)	(0,8)	(-24,78)	(-20,15)	(-359,5)	(1,5)	(-21,19)	(-23,1)	(2,8)	(-29,1)	
L1D 25>	(-25,74)	(1,36)	(4,7)	(-2,15)	(-1,107)	(-4,40)	(-15,3)	(-3,34)	(7,1)	(0,14)	(-30,32)	(-22,18)	(-5,19)	(-360,1)	(-21,20)	(-11,10)	
L1D 26>	(0,7)	(-358,2)	(-2,68)	(-4,32)	(-5,35)	(1,7)	(-1,8)	(-23,12)	(-26,54)	(46,2)	(-11,10)	(-6,5)	(-22,9)	(-3,7)	(-110,1)	(-30,10)	
L1D 27>	(-106,1)	(0,21)	(-3,95)	(-7,19)	(-27,63)	(-22,4)	(-6,37)	(-1,31)	(-364,3)	(-365,5)	(-30,9)	(-5,35)	(2,2)	(-4,11)	(4,5)	(-11,12)	
L1D 28>	(-27,17)	(-22,8)	(-23,16)	(-28,99)	(-1,61)	(1,62)	(0,89)	(-33,21)	(-7,17)	(-11,17)	(4,54)	(-21,18)	(-129,1)	(-331,8)	(-92,3)	(-88,4)	
L1D 29>	(4,14)	(-29,23)	(5,3)	(11,2)	(-135,1)	(1,107)	(-11,9)	(-34,2)	(-24,2)	(0,25)	(-1,33)	(-28,13)	(2,5)	(-123,1)	(-50,1)	(-35,4)	
L1D 30>	(-30,19)	(-1,27)	(-11,4)	(-36,5)	(-7,4)	(0,19)	(-35,2)	(1,66)	(4,18)	(-26,1)	(3,1)	(-29,3)	(-362,3)	(2,1)	(15,1)	(11,2)	
L1D 31>	(11,3)	(-141,5)	(0,40)	(-108,1)	(15,10)	(-373,2)	(-36,9)	(-11,30)	(-360,3)	(-7,7)	(1,12)	(-372,7)	(-136,3)	(-31,77)	(2,5)	(10,7)	
L1D 32>	(-94,4)	(-32,67)	(0,46)	(-37,6)	(-27,9)	(-7,5)	(-11,21)	(1,8)	(4,30)	(5,3)	(-147,2)	(-116,3)	(-164,1)	(-142,8)	(-394,1)	(-26,2)	
L1D 33>	(-34,19)	(4,46)	(-139,11)	(-138,8)	(1,50)	(0,126)	(-33,62)	(-23,11)	(77,1)	(-30,27)	(-376,5)	(-22,11)	(-7,18)	(3,19)	(-365,21)	(-38,29)	
L1D 34>	(-34,96)	(0,42)	(-35,7)	(4,15)	(-11,16)	(2,6)	(-23,4)	(15,6)	(-29,9)	(-40,4)	(-39,7)	(-7,3)	(-144,1)	(1,13)	(-86,3)	(6,7)	
L1D 35>	(15,1)	(5,6)	(-35,73)	(1,14)	(-1,13)	(2,7)	(-36,5)	(4,15)	(0,36)	(-30,3)	(-367,7)	(10,2)	(-46,2)	(-40,2)	(-41,2)	(-11,3)	
L1D 36>	(15,13)	(-368,7)	(3,3)	(-36,102)	(0,45)	(-37,4)	(-1,8)	(-41,3)	(-43,4)	(4,12)	(1,16)	(5,5)	(-30,1)	(-7,9)	(-71,3)	(-141,2)	
L1D 37>	(5,1)	(-11,7)	(-37,119)	(-1,15)	(-38,5)	(0,48)	(1,24)	(-42,9)	(-256,2)	(-32,11)	(74,3)	(-31,3)	(14,3)	(-36,3)	(15,2)	(4,25)	
L1D 38>	(-11,6)	(-38,65)	(-1,6)	(0,29)	(-3,2)	(-2,19)	(-7,4)	(-144,3)	(4,5)	(2,3)	(-33,5)	(-22,3)	(-313,1)	(-27,2)	(1,12)	(-143,4)	
L1D 39>	(-39,74)	(0,29)	(4,7)	(-57,2)	(-1,8)	(-149,1)	(15,6)	(-155,3)	(-28,1)	(2,4)	(-34,7)	(-45,5)	(1,19)	(-398,1)	(-7,3)	(-11,4)	
L1D 40>	(-40,107)	(0,47)	(-145,6)	(4,14)	(-29,7)	(-35,10)	(-39,4)	(1,33)	(-256,1)	(-7,4)	(-41,4)	(15,6)	(-372,5)	(-11,12)	(11,3)	(-1,19)	
L1D 41>	(1,45)	(-29,9)	(4,11)	(0,79)	(-151,6)	(10,1)	(-41,49)	(-40,8)	(-46,19)	(-7,11)	(-35,5)	(-36,12)	(-47,10)	(2,6)	(-393,5)	(-141,2)	
L1D 42>	(3,10)	(-42,118)	(6,14)	(0,55)	(1,21)	(4,23)	(-11,11)	(-48,6)	(-37,20)	(2,8)	(-7,11)	(15,6)	(-8,1)	(-1,4)	(-43,8)	(-21,7)	
L1D 43>	(-1,15)	(-43,102)	(0,40)	(4,24)	(1,27)	(2,2)	(15,1)	(-7,8)	(-38,4)	(-28,2)	(-21,5)	(-36,2)	(-57,1)	(-32,2)	(-396,2)	(-11,5)	
L1D 44>	(7,9)	(2,12)	(-44,88)	(0,41)	(1,17)	(-1,13)	(4,17)	(-39,5)	(15,9)	(-149,2)	(-34,2)	(5,1)	(-11,5)	(3,7)	(-399,7)	(-154,5)	
L1D 45>	(-11,5)	(-45,72)	(-29,2)	(4,9)	(0,25)	(-1,10)	(1,20)	(-2,3)	(-40,8)	(-50,3)	(-36,1)	(-44,6)	(-377,1)	(3,2)	(-34,9)	(-7,1)	
L1D 46>	(4,29)	(0,88)	(-46,123)	(-3,7)	(-41,17)	(-52,8)	(-36,10)	(-403,9)	(1,24)	(-11,9)	(-35,8)	(-343,3)	(-1,18)	(-8,6)	(-24,2)	(7,12)	
L1D 47>	(0,41)	(4,7)	(-47,102)	(-1,15)	(-42,7)	(30,3)	(-57,3)	(1,17)	(-377,1)	(7,15)	(-52,7)	(-7,8)	(-3,4)	(-4,2)	(-11,15)	(-2,2)	
L1D 48>	(-48,98)	(0,35)	(-1,10)	(-153,4)	(-54,12)	(-158,2)	(7,8)	(-11,4)	(-37,2)	(-53,8)	(-38,2)	(-47,4)	(-43,4)	(4,15)	(-32,2)	(11,1)	
L1D 49>	(-49,65)	(4,27)	(0,55)	(-11,15)	(-160,17)	(-44,23)	(-154,18)	(-159,5)	(2,13)	(32,2)	(7,18)	(1,23)	(-7,9)	(-165,8)	(-155,9)	(-429,1)	
L1D 50>	(-50,81)	(-45,23)	(-38,3)	(1,35)	(0,60)	(-8,19)	(-7,1)	(-161,7)	(4,39)	(-49,10)	(-55,10)	(7,9)	(11,4)	(-11,15)	(-40,8)	(-160,11)	
[...]
L1D 476>	(-315,1)	(-195,1)	(-475,2)	(-392,1)	(-507,1)	(-215,1)	(-465,2)	(1,0)	(1,0)	(1,0)	(1,0)	(1,0)	(1,0)	(1,0)	(1,0)	(1,0)	
L1D 477>	(-206,1)	(-500,1)	(-457,1)	(-442,1)	(-311,1)	(-507,1)	(1,0)	(1,0)	(1,0)	(1,0)	(1,0)	(1,0)	(1,0)	(1,0)	(1,0)	(1,0)	
L1D 478>	(-489,1)	(-207,1)	(-211,1)	(-138,1)	(1,0)	(1,0)	(1,0)	(1,0)	(1,0)	(1,0)	(1,0)	(1,0)	(1,0)	(1,0)	(1,0)	(1,0)	
L1D 479>	(-200,1)	(-490,1)	(1,0)	(1,0)	(1,0)	(1,0)	(1,0)	(1,0)	(1,0)	(1,0)	(1,0)	(1,0)	(1,0)	(1,0)	(1,0)	(1,0)	
L1D 480>	(-332,1)	(1,0)	(1,0)	(1,0)	(1,0)	(1,0)	(1,0)	(1,0)	(1,0)	(1,0)	(1,0)	(1,0)	(1,0)	(1,0)	(1,0)	(1,0)	
L1D 481>	(-492,1)	(-470,1)	(-332,2)	(1,0)	(1,0)	(1,0)	(1,0)	(1,0)	(1,0)	(1,0)	(1,0)	(1,0)	(1,0)	(1,0)	(1,0)	(1,0)	
L1D 482>	(-492,1)	(-300,1)	(-471,1)	(-332,1)	(-206,1)	(-311,1)	(26,1)	(1,0)	(1,0)	(1,0)	(1,0)	(1,0)	(1,0)	(1,0)	(1,0)	(1,0)	
L1D 483>	(-210,1)	(1,0)	(1,0)	(1,0)	(1,0)	(1,0)	(1,0)	(1,0)	(1,0)	(1,0)	(1,0)	(1,0)	(1,0)	(1,0)	(1,0)	(1,0)	
L1D 484>	(-493,1)	(-311,1)	(-332,1)	(1,0)	(1,0)	(1,0)	(1,0)	(1,0)	(1,0)	(1,0)	(1,0)	(1,0)	(1,0)	(1,0)	(1,0)	(1,0)	
L1D 485>	(-111,1)	(-311,1)	(-332,1)	(1,0)	(1,0)	(1,0)	(1,0)	(1,0)	(1,0)	(1,0)	(1,0)	(1,0)	(1,0)	(1,0)	(1,0)	(1,0)	
L1D 486>	(-332,1)	(-475,4)	(1,0)	(1,0)	(1,0)	(1,0)	(1,0)	(1,0)	(1,0)	(1,0)	(1,0)	(1,0)	(1,0)	(1,0)	(1,0)	(1,0)	
L1D 487>	(-315,1)	(-476,3)	(1,0)	(1,0)	(1,0)	(1,0)	(1,0)	(1,0)	(1,0)	(1,0)	(1,0)	(1,0)	(1,0)	(1,0)	(1,0)	(1,0)	
L1D 488>	(-477,3)	(-332,1)	(-331,3)	(-499,1)	(-316,1)	(1,0)	(1,0)	(1,0)	(1,0)	(1,0)	(1,0)	(1,0)	(1,0)	(1,0)	(1,0)	(1,0)	
L1D 489>	(-216,1)	(-478,1)	(1,0)	(1,0)	(1,0)	(1,0)	(1,0)	(1,0)	(1,0)	(1,0)	(1,0)	(1,0)	(1,0)	(1,0)	(1,0)	(1,0)	
L1D 490>	(-332,1)	(-478,1)	(-479,1)	(-310,1)	(1,0)	(1,0)	(1,0)	(1,0)	(1,0)	(1,0)	(1,0)	(1,0)	(1,0)	(1,0)	(1,0)	(1,0)	
L1D 491>	(-480,3)	(-205,1)	(1,0)	(1,0)	(1,0)	(1,0)	(1,0)	(1,0)	(1,0)	(1,0)	(1,0)	(1,0)	(1,0)	(1,0)	(1,0)	(1,0)	
L1D 492>	(-206,1)	(5,1)	(-331,1)	(-481,3)	(1,0)	(1,0)	(1,0)	(1,0)	(1,0)	(1,0)	(1,0)	(1,0)	(1,0)	(1,0)	(1,0)	(1,0)	
L1D 493>	(-482,6)	(-331,1)	(-317,1)	(1,0)	(1,0)	(1,0)	(1,0)	(1,0)	(1,0)	(1,0)	(1,0)	(1,0)	(1,0)	(1,0)	(1,0)	(1,0)	
L1D 494>	(0,1)	(-332,2)	(-452,1)	(-482,1)	(-316,1)	(-504,1)	(-327,1)	(1,0)	(1,0)	(1,0)	(1,0)	(1,0)	(1,0)	(1,0)	(1,0)	(1,0)	
L1D 495>	(-485,1)	(-326,1)	(-216,1)	(-221,2)	(-222,1)	(1,0)	(1,0)	(1,0)	(1,0)	(1,0)	(1,0)	(1,0)	(1,0)	(1,0)	(1,0)	(1,0)	
L1D 496>	(-332,1)	(-87,1)	(-216,1)	(-495,1)	(-327,1)	(1,0)	(1,0)	(1,0)	(1,0)	(1,0)	(1,0)	(1,0)	(1,0)	(1,0)	(1,0)	(1,0)	
L1D 497>	(-331,1)	(-486,2)	(-215,1)	(1,0)	(1,0)	(1,0)	(1,0)	(1,0)	(1,0)	(1,0)	(1,0)	(1,0)	(1,0)	(1,0)	(1,0)	(1,0)	
L1D 498>	(-487,1)	(-331,1)	(0,1)	(-321,1)	(-215,1)	(-221,1)	(1,0)	(1,0)	(1,0)	(1,0)	(1,0)	(1,0)	(1,0)	(1,0)	(1,0)	(1,0)	
L1D 499>	(-331,1)	(1,0)	(1,0)	(1,0)	(1,0)	(1,0)	(1,0)	(1,0)	(1,0)	(1,0)	(1,0)	(1,0)	(1,0)	(1,0)	(1,0)	(1,0)	
L1D 500>	(-489,1)	(4,1)	(-227,1)	(1,0)	(1,0)	(1,0)	(1,0)	(1,0)	(1,0)	(1,0)	(1,0)	(1,0)	(1,0)	(1,0)	(1,0)	(1,0)	
L1D 501>	(-221,1)	(1,0)	(1,0)	(1,0)	(1,0)	(1,0)	(1,0)	(1,0)	(1,0)	(1,0)	(1,0)	(1,0)	(1,0)	(1,0)	(1,0)	(1,0)	
L1D 502>	(-491,1)	(-221,2)	(1,0)	(1,0)	(1,0)	(1,0)	(1,0)	(1,0)	(1,0)	(1,0)	(1,0)	(1,0)	(1,0)	(1,0)	(1,0)	(1,0)	
L1D 503>	(-222,1)	(1,0)	(1,0)	(1,0)	(1,0)	(1,0)	(1,0)	(1,0)	(1,0)	(1,0)	(1,0)	(1,0)	(1,0)	(1,0)	(1,0)	(1,0)	
L1D 504>	(-321,2)	(-110,1)	(-492,1)	(1,0)	(1,0)	(1,0)	(1,0)	(1,0)	(1,0)	(1,0)	(1,0)	(1,0)	(1,0)	(1,0)	(1,0)	(1,0)	
L1D 505>	(4,1)	(-333,1)	(0,1)	(-322,2)	(-494,1)	(1,0)	(1,0)	(1,0)	(1,0)	(1,0)	(1,0)	(1,0)	(1,0)	(1,0)	(1,0)	(1,0)	
L1D 506>	(-495,1)	(1,0)	(1,0)	(1,0)	(1,0)	(1,0)	(1,0)	(1,0)	(1,0)	(1,0)	(1,0)	(1,0)	(1,0)	(1,0)	(1,0)	(1,0)	
L1D 507>	(1,0)	(1,0)	(1,0)	(1,0)	(1,0)	(1,0)	(1,0)	(1,0)	(1,0)	(1,0)	(1,0)	(1,0)	(1,0)	(1,0)	(1,0)	(1,0)	
L1D 508>	(-226,2)	(1,0)	(1,0)	(1,0)	(1,0)	(1,0)	(1,0)	(1,0)	(1,0)	(1,0)	(1,0)	(1,0)	(1,0)	(1,0)	(1,0)	(1,0)	
L1D 509>	(-26,1)	(-331,1)	(-508,1)	(-498,1)	(1,0)	(1,0)	(1,0)	(1,0)	(1,0)	(1,0)	(1,0)	(1,0)	(1,0)	(1,0)	(1,0)	(1,0)	
L1D 510>	(0,1)	(1,0)	(1,0)	(1,0)	(1,0)	(1,0)	(1,0)	(1,0)	(1,0)	(1,0)	(1,0)	(1,0)	(1,0)	(1,0)	(1,0)	(1,0)	
L1D 511>	(1,0)	(1,0)	(1,0)	(1,0)	(1,0)	(1,0)	(1,0)	(1,0)	(1,0)	(1,0)	(1,0)	(1,0)	(1,0)	(1,0)	(1,0)	(1,0)	

L2C -64>	(1,86)	(16,5)	(9,16)	(17,4)	(10,12)	(14,3)	(-1,95)	(-13,9)	(-30,6)	(-37,1)	(5,9)	(3,6)	(-33,2)	(4,8)	(-5,37)	(2,14)	
L2C -63>	(1,12)	(1,0)	(1,0)	(1,0)	(1,0)	(1,0)	(1,0)	(1,0)	(1,0)	(1,0)	(1,0)	(1,0)	(1,0)	(1,0)	(1,0)	(1,0)	
L2C -62>	(1,1)	(41,1)	(1,0)	(1,0)	(1,0)	(1,0)	(1,0)	(1,0)	(1,0)	(1,0)	(1,0)	(1,0)	(1,0)	(1,0)	(1,0)	(1,0)	
L2C -61>	(11,1)	(5,1)	(34,1)	(36,2)	(23,1)	(1,0)	(1,0)	(1,0)	(1,0)	(1,0)	(1,0)	(1,0)	(1,0)	(1,0)	(1,0)	(1,0)	
L2C -60>	(1,3)	(17,2)	(46,1)	(16,1)	(1,0)	(1,0)	(1,0)	(1,0)	(1,0)	(1,0)	(1,0)	(1,0)	(1,0)	(1,0)	(1,0)	(1,0)	
L2C -59>	(36,1)	(62,1)	(35,1)	(45,1)	(50,1)	(37,1)	(1,0)	(1,0)	(1,0)	(1,0)	(1,0)	(1,0)	(1,0)	(1,0)	(1,0)	(1,0)	
L2C -58>	(39,1)	(3,1)	(14,1)	(34,1)	(1,0)	(1,0)	(1,0)	(1,0)	(1,0)	(1,0)	(1,0)	(1,0)	(1,0)	(1,0)	(1,0)	(1,0)	
L2C -57>	(55,1)	(8,1)	(32,1)	(5,1)	(1,0)	(1,0)	(1,0)	(1,0)	(1,0)	(1,0)	(1,0)	(1,0)	(1,0)	(1,0)	(1,0)	(1,0)	
L2C -56>	(32,1)	(1,4)	(29,1)	(35,6)	(0,1)	(18,1)	(6,1)	(-1,5)	(16,1)	(1,0)	(1,0)	(1,0)	(1,0)	(1,0)	(1,0)	(1,0)	
L2C -55>	(4,1)	(35,1)	(1,2)	(-5,1)	(25,1)	(39,1)	(30,1)	(-1,1)	(1,0)	(1,0)	(1,0)	(1,0)	(1,0)	(1,0)	(1,0)	(1,0)	
L2C -54>	(1,6)	(2,2)	(41,1)	(61,1)	(25,1)	(3,1)	(1,0)	(1,0)	(1,0)	(1,0)	(1,0)	(1,0)	(1,0)	(1,0)	(1,0)	(1,0)	
L2C -53>	(51,1)	(21,1)	(1,22)	(14,1)	(2,3)	(7,1)	(1,0)	(1,0)	(1,0)	(1,0)	(1,0)	(1,0)	(1,0)	(1,0)	(1,0)	(1,0)	
L2C -52>	(-9,1)	(8,1)	(39,1)	(1,4)	(-1,1)	(26,1)	(1,0)	(1,0)	(1,0)	(1,0)	(1,0)	(1,0)	(1,0)	(1,0)	(1,0)	(1,0)	
L2C -51>	(29,1)	(1,8)	(2,2)	(5,1)	(17,1)	(47,1)	(9,1)	(35,1)	(28,1)	(1,0)	(1,0)	(1,0)	(1,0)	(1,0)	(1,0)	(1,0)	
L2C -50>	(32,3)	(1,10)	(50,1)	(5,1)	(2,1)	(12,1)	(16,1)	(15,1)	(17,1)	(-1,1)	(1,0)	(1,0)	(1,0)	(1,0)	(1,0)	(1,0)	
L2C -49>	(1,12)	(20,1)	(26,1)	(40,1)	(-1,2)	(15,2)	(27,1)	(2,2)	(45,3)	(24,1)	(8,1)	(32,1)	(-5,1)	(46,1)	(1,0)	(1,0)	
L2C -48>	(45,1)	(29,1)	(1,7)	(-2,1)	(-1,1)	(14,1)	(1,0)	(1,0)	(1,0)	(1,0)	(1,0)	(1,0)	(1,0)	(1,0)	(1,0)	(1,0)	
L2C -47>	(24,1)	(-3,1)	(1,9)	(34,1)	(27,1)	(2,1)	(-1,2)	(13,1)	(-6,1)	(49,1)	(32,1)	(1,0)	(1,0)	(1,0)	(1,0)	(1,0)	
L2C -46>	(-5,1)	(7,1)	(2,4)	(14,1)	(1,5)	(41,2)	(42,1)	(-8,2)	(-1,1)	(32,2)	(-14,1)	(24,1)	(1,0)	(1,0)	(1,0)	(1,0)	
L2C -45>	(1,8)	(28,1)	(44,2)	(14,1)	(3,1)	(15,1)	(30,1)	(6,1)	(27,1)	(31,1)	(40,1)	(36,1)	(32,1)	(9,1)	(-1,4)	(19,1)	
L2C -44>	(1,6)	(-1,2)	(22,2)	(25,1)	(3,2)	(15,2)	(-10,1)	(35,1)	(7,1)	(24,1)	(-2,1)	(1,0)	(1,0)	(1,0)	(1,0)	(1,0)	
L2C -43>	(3,2)	(-1,2)	(31,2)	(-2,1)	(30,2)	(8,1)	(41,1)	(13,1)	(35,1)	(42,1)	(1,7)	(39,1)	(6,1)	(-4,1)	(44,1)	(21,1)	
L2C -42>	(1,6)	(15,1)	(-1,3)	(32,2)	(-3,1)	(7,1)	(6,1)	(-5,1)	(39,2)	(5,1)	(2,1)	(18,1)	(25,1)	(21,1)	(1,0)	(1,0)	
L2C -41>	(6,1)	(2,3)	(20,1)	(40,1)	(26,1)	(1,4)	(24,1)	(12,2)	(38,2)	(16,2)	(-1,3)	(4,1)	(27,1)	(32,2)	(31,1)	(5,1)	
L2C -40>	(-2,1)	(5,1)	(13,1)	(41,2)	(35,1)	(1,8)	(-1,5)	(9,1)	(39,2)	(42,1)	(20,1)	(3,2)	(2,3)	(38,1)	(34,2)	(52,1)	
L2C -39>	(1,17)	(-5,1)	(8,3)	(17,2)	(27,1)	(34,1)	(-4,2)	(43,1)	(15,1)	(-14,2)	(2,3)	(-18,1)	(25,1)	(35,1)	(-3,2)	(4,1)	
L2C -38>	(1,9)	(-1,7)	(42,3)	(18,1)	(9,2)	(4,1)	(-6,1)	(16,1)	(-4,2)	(17,8)	(-2,1)	(2,4)	(57,2)	(15,1)	(-5,2)	(-8,1)	
L2C -37>	(15,2)	(29,1)	(-3,3)	(1,11)	(-1,4)	(21,2)	(8,3)	(35,1)	(51,1)	(24,1)	(6,1)	(16,1)	(36,6)	(18,1)	(2,3)	(3,1)	
L2C -36>	(-1,13)	(35,2)	(-3,1)	(1,9)	(-14,1)	(8,1)	(30,3)	(37,2)	(-6,3)	(29,2)	(28,2)	(32,2)	(17,1)	(2,3)	(16,1)	(0,2)	
L2C -35>	(21,2)	(1,10)	(14,2)	(4,1)	(29,1)	(7,1)	(44,1)	(31,4)	(33,1)	(-7,2)	(22,1)	(19,2)	(16,2)	(8,2)	(-18,1)	(2,5)	
L2C -34>	(1,18)	(38,2)	(2,2)	(55,2)	(28,1)	(40,1)	(0,4)	(36,2)	(3,2)	(15,1)	(-7,1)	(18,1)	(-17,1)	(22,1)	(4,4)	(-1,6)	
L2C -33>	(1,9)	(-1,9)	(29,3)	(-5,2)	(31,7)	(32,1)	(11,1)	(-3,1)	(52,1)	(27,1)	(4,3)	(41,1)	(38,1)	(18,1)	(2,1)	(34,1)	
L2C -32>	(1,15)	(16,4)	(30,3)	(15,2)	(-8,1)	(40,3)	(9,1)	(44,1)	(22,3)	(2,12)	(25,3)	(31,5)	(6,1)	(28,2)	(-4,2)	(17,4)	
L2C -31>	(-27,1)	(-1,4)	(15,3)	(8,3)	(2,3)	(30,3)	(14,3)	(-4,2)	(-16,1)	(4,1)	(19,1)	(6,1)	(11,1)	(1,6)	(28,1)	(20,1)	
L2C -30>	(-6,1)	(46,1)	(14,3)	(-10,2)	(27,2)	(29,3)	(4,3)	(1,8)	(-14,1)	(16,1)	(30,5)	(15,3)	(7,1)	(-4,1)	(-2,3)	(-9,2)	
L2C -29>	(22,1)	(34,2)	(33,4)	(-9,2)	(8,1)	(1,8)	(3,2)	(-1,5)	(30,1)	(10,2)	(36,2)	(-24,1)	(-2,3)	(12,1)	(32,2)	(45,1)	
L2C -28>	(1,10)	(-17,1)	(26,2)	(21,1)	(29,2)	(27,1)	(14,1)	(-2,1)	(2,2)	(32,3)	(8,1)	(4,5)	(-10,1)	(-4,2)	(22,3)	(13,2)	
L2C -27>	(8,2)	(-6,1)	(5,1)	(1,9)	(38,1)	(-1,2)	(-2,6)	(19,2)	(13,2)	(2,4)	(-3,1)	(35,1)	(27,1)	(4,3)	(29,3)	(24,2)	
L2C -26>	(-1,3)	(46,1)	(1,8)	(19,2)	(9,1)	(-18,1)	(2,1)	(28,2)	(5,3)	(3,1)	(-22,1)	(-30,1)	(25,3)	(44,1)	(10,3)	(-29,1)	
L2C -25>	(7,2)	(37,1)	(15,2)	(10,2)	(44,1)	(3,3)	(9,5)	(34,2)	(1,17)	(17,2)	(32,2)	(2,2)	(38,3)	(46,1)	(19,1)	(39,1)	
L2C -24>	(-8,3)	(-26,1)	(-5,2)	(1,16)	(-1,5)	(-4,1)	(11,3)	(26,2)	(32,3)	(3,2)	(50,2)	(23,1)	(33,3)	(6,2)	(7,2)	(12,1)	
L2C -23>	(3,3)	(-4,4)	(16,1)	(37,1)	(22,2)	(1,26)	(-23,1)	(25,5)	(36,1)	(13,1)	(-19,1)	(-8,1)	(-1,15)	(-28,1)	(9,3)	(28,3)	
L2C -22>	(25,1)	(28,1)	(1,18)	(53,1)	(21,4)	(4,2)	(-1,4)	(8,3)	(23,3)	(22,1)	(3,4)	(-6,1)	(-14,4)	(24,3)	(11,1)	(61,1)	
L2C -21>	(5,6)	(-15,1)	(36,1)	(17,3)	(2,6)	(6,2)	(-5,2)	(50,1)	(20,4)	(-2,2)	(-16,3)	(-24,2)	(15,7)	(-17,2)	(4,3)	(1,12)	
L2C -20>	(1,23)	(-1,13)	(15,3)	(-17,3)	(26,1)	(-36,1)	(6,1)	(-10,2)	(30,3)	(20,2)	(35,1)	(4,3)	(16,2)	(-16,3)	(-21,1)	(-7,4)	
L2C -19>	(1,35)	(59,2)	(-1,5)	(14,3)	(0,6)	(2,11)	(25,1)	(49,1)	(-2,3)	(17,3)	(-6,2)	(7,1)	(26,1)	(4,4)	(-11,1)	(27,6)	
L2C -18>	(-1,10)	(2,2)	(3,2)	(1,48)	(44,1)	(12,3)	(-2,1)	(6,1)	(30,1)	(-9,2)	(-6,4)	(18,1)	(32,1)	(33,1)	(-3,1)	(-5,4)	
L2C -17>	(18,4)	(30,3)	(15,5)	(1,40)	(16,3)	(-3,3)	(-2,5)	(-16,2)	(9,5)	(-17,2)	(27,2)	(-4,1)	(-1,8)	(12,2)	(-8,4)	(42,1)	
L2C -16>	(14,11)	(17,1)	(-1,19)	(15,12)	(12,5)	(1,45)	(16,10)	(-7,5)	(-6,2)	(4,5)	(-2,7)	(26,3)	(0,3)	(2,5)	(34,2)	(32,6)	
L2C -15>	(17,6)	(-2,2)	(-1,39)	(12,6)	(1,27)	(0,3)	(3,2)	(16,12)	(-18,4)	(4,1)	(15,7)	(11,2)	(35,1)	(-21,2)	(14,5)	(20,1)	
L2C -14>	(2,6)	(45,2)	(16,6)	(1,31)	(11,4)	(-1,24)	(20,4)	(39,2)	(9,4)	(19,1)	(-36,1)	(13,4)	(-27,1)	(-33,1)	(30,2)	(31,4)	
L2C -13>	(2,3)	(-1,10)	(6,1)	(1,26)	(-20,3)	(14,14)	(-12,3)	(36,1)	(3,4)	(-15,3)	(25,1)	(-31,1)	(12,8)	(-11,2)	(-29,2)	(23,1)	
L2C -12>	(-1,33)	(21,1)	(1,18)	(19,2)	(37,1)	(-4,6)	(-21,1)	(5,3)	(-20,2)	(3,3)	(-22,1)	(-16,1)	(-38,2)	(-17,4)	(-12,2)	(-29,1)	
L2C -11>	(4,2)	(9,2)	(12,2)	(-3,3)	(-4,7)	(1,21)	(-22,2)	(0,2)	(16,6)	(11,1)	(-1,11)	(56,1)	(18,2)	(-2,1)	(10,2)	(-23,9)	
L2C -10>	(-26,2)	(1,18)	(-1,19)	(19,2)	(31,2)	(18,4)	(0,1)	(54,1)	(49,1)	(2,6)	(3,4)	(23,2)	(-23,4)	(16,2)	(-11,3)	(37,2)	
L2C -9>	(26,1)	(-1,25)	(24,3)	(35,1)	(10,6)	(7,2)	(-3,2)	(-41,1)	(39,1)	(-14,4)	(5,5)	(3,1)	(46,1)	(-32,1)	(-16,2)	(1,24)	
L2C -8>	(2,10)	(-1,48)	(4,7)	(-7,3)	(16,10)	(15,3)	(1,29)	(0,3)	(-17,3)	(-2,1)	(5,10)	(3,20)	(26,2)	(41,3)	(23,3)	(-3,7)	
L2C -7>	(19,2)	(9,5)	(-1,199)	(-4,2)	(1,36)	(-8,7)	(7,1)	(37,4)	(3,3)	(-24,1)	(-12,3)	(31,2)	(27,1)	(-7,3)	(5,2)	(-38,1)	
L2C -6>	(-1,222)	(5,42)	(1,65)	(14,4)	(-9,7)	(7,9)	(2,11)	(-2,14)	(-14,3)	(4,2)	(-16,4)	(3,2)	(-8,4)	(0,15)	(33,3)	(-19,2)	
L2C -5>	(-4,7)	(-16,2)	(-1,72)	(1,112)	(9,4)	(4,26)	(-2,10)	(12,4)	(15,2)	(2,9)	(21,1)	(30,1)	(6,10)	(0,13)	(7,6)	(3,25)	
L2C -4>	(-3,4)	(3,23)	(20,2)	(-1,95)	(23,4)	(1,76)	(0,14)	(-9,3)	(-36,2)	(8,7)	(35,1)	(16,6)	(5,34)	(-5,3)	(2,12)	(-2,7)	
L2C -3>	(2,21)	(19,3)	(-5,7)	(-1,111)	(-20,2)	(-2,3)	(-11,3)	(4,19)	(1,33)	(23,2)	(53,2)	(-4,11)	(21,3)	(52,1)	(14,3)	(-30,1)	
L2C -2>	(2,5)	(3,3)	(24,5)	(1,45)	(-1,235)	(-2,203)	(-6,2)	(16,6)	(13,8)	(14,10)	(15,6)	(46,3)	(5,2)	(11,5)	(-4,4)	(17,2)	
L2C -1>	(9,4)	(-7,4)	(16,1)	(-1,236)	(10,1)	(-2,21)	(32,1)	(12,1)	(11,3)	(2,4)	(53,1)	(-4,2)	(-14,1)	(1,3)	(23,1)	(3,1)	
L2C 0>	(50,2)	(-1,13)	(1,68)	(2,6)	(12,2)	(-3,4)	(-5,4)	(-8,5)	(18,1)	(0,150)	(5,14)	(3,6)	(-32,2)	(11,2)	(34,2)	(19,1)	
L2C 1>	(1,192)	(-6,7)	(-20,1)	(-7,2)	(-5,3)	(-3,2)	(-22,2)	(-13,1)	(18,2)	(-4,2)	(5,1)	(2,7)	(-2,1)	(3,2)	(-1,4)	(-16,1)	
L2C 2>	(2,22)	(1,250)	(-6,1)	(-1,32)	(3,12)	(-2,4)	(-3,11)	(-4,3)	(-7,4)	(29,2)	(0,1)	(-15,1)	(-17,2)	(-14,2)	(-8,5)	(-33,2)	
L2C 3>	(7,1)	(-8,6)	(1,130)	(11,1)	(-1,18)	(-4,28)	(2,9)	(27,1)	(-23,1)	(-16,2)	(-17,1)	(-9,1)	(-5,15)	(18,1)	(-19,2)	(15,3)	
L2C 4>	(20,2)	(-7,2)	(13,4)	(-1,82)	(1,84)	(-39,2)	(0,5)	(-5,3)	(-11,4)	(24,2)	(-19,3)	(2,6)	(10,1)	(5,3)	(-8,12)	(-29,1)	
L2C 5>	(-5,16)	(1,76)	(-8,5)	(-2,16)	(-32,3)	(-1,81)	(3,1)	(8,3)	(-3,2)	(21,3)	(-31,3)	(-18,2)	(-7,3)	(0,6)	(18,2)	(-6,16)	
L2C 6>	(1,40)	(2,10)	(-1,45)	(-5,6)	(-15,4)	(-34,1)	(-8,3)	(-4,3)	(-6,11)	(16,4)	(32,4)	(13,1)	(31,3)	(-23,1)	(33,3)	(9,5)	
L2C 7>	(0,3)	(5,1)	(1,57)	(-1,29)	(43,1)	(-36,1)	(8,4)	(-2,3)	(9,2)	(-3,1)	(-19,5)	(-17,2)	(-28,1)	(-8,4)	(-14,2)	(10,2)	
L2C 8>	(-15,3)	(-10,2)	(1,47)	(-7,3)	(-1,38)	(-19,4)	(4,2)	(2,12)	(3,3)	(-4,2)	(-24,1)	(24,1)	(-8,7)	(-16,8)	(0,14)	(13,1)	
L2C 9>	(1,37)	(12,2)	(6,1)	(-6,5)	(-3,3)	(-1,156)	(-15,4)	(2,8)	(10,1)	(20,2)	(-32,2)	(-2,12)	(-16,7)	(-5,3)	(-19,2)	(-10,3)	
L2C 10>	(-11,5)	(2,7)	(-5,9)	(-1,81)	(-7,2)	(-8,5)	(18,3)	(6,2)	(-16,5)	(1,77)	(8,2)	(-12,1)	(45,1)	(42,1)	(-2,32)	(-14,4)	
L2C 11>	(1,52)	(-32,4)	(-1,69)	(-4,6)	(-15,2)	(-13,1)	(4,1)	(-16,5)	(-34,2)	(28,1)	(-11,3)	(9,2)	(10,1)	(30,1)	(6,1)	(-19,4)	
L2C 12>	(-11,4)	(-1,46)	(-16,5)	(-13,11)	(-2,4)	(3,9)	(1,25)	(4,3)	(5,1)	(-28,1)	(-35,1)	(6,1)	(-30,2)	(15,2)	(36,1)	(22,4)	
L2C 13>	(0,2)	(-18,4)	(1,28)	(-1,29)	(-33,3)	(-7,1)	(-17,2)	(-20,2)	(13,4)	(-6,7)	(-30,3)	(-32,1)	(-53,1)	(-29,2)	(-23,3)	(26,1)	
L2C 14>	(-13,25)	(-1,71)	(1,36)	(-6,13)	(-2,1)	(-3,2)	(3,4)	(20,2)	(-32,4)	(-20,2)	(-16,13)	(-48,2)	(-46,2)	(-45,5)	(38,1)	(-31,7)	
L2C 15>	(-36,5)	(-14,17)	(-15,7)	(-1,55)	(-32,3)	(0,3)	(34,1)	(1,27)	(-18,3)	(-6,3)	(16,4)	(3,4)	(-16,8)	(-28,2)	(-30,3)	(-9,1)	
L2C 16>	(-1,60)	(10,2)	(1,25)	(-35,2)	(-4,8)	(-16,4)	(29,2)	(8,3)	(-5,3)	(-39,2)	(-22,4)	(-2,8)	(-15,11)	(-17,1)	(-18,2)	(-14,4)	
L2C 17>	(-17,1)	(8,1)	(1,16)	(-1,19)	(-37,2)	(-9,3)	(-19,5)	(5,12)	(-14,1)	(-2,1)	(-23,4)	(2,2)	(-16,4)	(-46,2)	(27,2)	(-4,4)	
L2C 18>	(1,17)	(-17,5)	(-1,27)	(-32,1)	(-6,1)	(3,3)	(39,1)	(-18,1)	(0,2)	(-20,2)	(-15,2)	(-2,3)	(-3,2)	(-56,1)	(-22,4)	(9,1)	
L2C 19>	(1,20)	(-1,25)	(-18,2)	(-3,2)	(-50,1)	(-19,1)	(-30,1)	(-8,4)	(-4,7)	(-35,2)	(15,1)	(11,1)	(-37,2)	(-5,1)	(-33,3)	(13,2)	
L2C 20>	(-1,12)	(-16,3)	(1,8)	(-19,4)	(-13,2)	(4,3)	(-5,4)	(16,1)	(-9,1)	(-8,5)	(-15,2)	(-31,1)	(30,1)	(-26,1)	(-10,2)	(14,2)	
L2C 21>	(-1,9)	(1,5)	(-20,5)	(-37,2)	(-11,2)	(12,3)	(-4,3)	(-18,1)	(-14,1)	(-13,1)	(-2,1)	(-33,1)	(-17,3)	(-19,3)	(-8,1)	(-24,1)	
L2C 22>	(1,18)	(-1,21)	(-23,1)	(-8,4)	(-7,2)	(-24,1)	(-17,1)	(15,1)	(-21,2)	(-20,1)	(-32,2)	(5,11)	(-38,2)	(-9,2)	(-11,1)	(16,1)	
L2C 23>	(-22,4)	(7,2)	(1,20)	(18,1)	(-34,2)	(-23,3)	(-1,19)	(-32,3)	(32,1)	(13,1)	(0,4)	(-4,3)	(-15,1)	(-31,1)	(-12,1)	(-9,1)	
L2C 24>	(-25,2)	(1,10)	(8,2)	(-22,2)	(-27,1)	(-23,7)	(-1,38)	(-3,1)	(14,2)	(17,2)	(-8,4)	(-34,2)	(-12,1)	(-2,2)	(-20,2)	(-16,5)	
L2C 25>	(1,8)	(-1,12)	(27,1)	(-4,2)	(19,2)	(-24,5)	(-30,1)	(-34,2)	(9,2)	(-15,2)	(6,1)	(-32,5)	(-2,4)	(-55,1)	(-43,1)	(-47,1)	
L2C 26>	(-1,9)	(13,1)	(-25,4)	(1,6)	(-9,2)	(8,4)	(-5,1)	(-17,2)	(-28,1)	(-34,2)	(-22,2)	(-18,2)	(6,1)	(16,2)	(-6,2)	(-42,1)	
L2C 27>	(2,6)	(1,5)	(-43,3)	(-25,1)	(4,2)	(-26,1)	(-11,2)	(21,1)	(-24,1)	(-23,3)	(12,1)	(-35,4)	(3,2)	(5,1)	(-6,2)	(-2,2)	
L2C 28>	(-28,2)	(-6,2)	(1,7)	(-54,1)	(8,1)	(4,2)	(-1,1)	(-29,2)	(-27,4)	(-41,1)	(-9,1)	(-44,2)	(14,3)	(-34,2)	(17,1)	(-10,1)	
L2C 29>	(-49,1)	(-28,4)	(-13,4)	(-2,1)	(9,1)	(-31,3)	(-46,2)	(-45,1)	(-20,2)	(-33,2)	(-1,4)	(-37,2)	(-36,3)	(-38,8)	(-3,2)	(-25,3)	
L2C 30>	(1,10)	(-12,3)	(2,7)	(4,5)	(5,1)	(-2,2)	(8,2)	(0,2)	(-31,5)	(-47,1)	(-1,4)	(-16,2)	(-17,2)	(-42,1)	(-23,1)	(-5,2)	
L2C 31>	(-1,10)	(2,1)	(-32,10)	(5,2)	(1,9)	(14,7)	(-8,3)	(-36,1)	(-30,4)	(-15,2)	(-9,2)	(13,1)	(-33,1)	(-53,1)	(-39,1)	(-25,1)	
L2C 32>	(17,1)	(-1,37)	(-41,1)	(15,3)	(-4,7)	(13,3)	(4,4)	(1,17)	(-26,1)	(-12,1)	(-20,3)	(-33,4)	(-15,5)	(18,1)	(-16,9)	(-28,3)	
L2C 33>	(-1,12)	(-7,2)	(-34,3)	(-2,6)	(-17,7)	(-16,5)	(1,10)	(-48,1)	(-3,2)	(-31,2)	(-25,3)	(14,1)	(-26,2)	(-4,2)	(-18,2)	(-11,1)	
L2C 34>	(-2,5)	(-6,1)	(1,12)	(-12,1)	(-37,1)	(-25,1)	(-18,2)	(-31,2)	(-41,2)	(4,1)	(-15,3)	(-1,4)	(-4,5)	(-8,1)	(-32,3)	(-39,1)	
L2C 35>	(2,2)	(-32,1)	(1,20)	(-34,7)	(-1,3)	(-54,1)	(-29,2)	(-2,2)	(22,1)	(-31,1)	(-5,1)	(4,1)	(-36,11)	(-10,1)	(-42,1)	(8,1)	
L2C 36>	(1,5)	(-1,6)	(-25,2)	(-39,2)	(-3,1)	(3,2)	(21,1)	(-15,3)	(5,2)	(-34,1)	(-13,1)	(-35,8)	(-16,3)	(19,1)	(-38,1)	(14,1)	
L2C 37>	(-1,11)	(-20,1)	(-41,1)	(-35,6)	(2,1)	(1,5)	(3,3)	(-8,1)	(-19,1)	(-38,1)	(-42,1)	(-13,1)	(-4,1)	(-17,1)	(-59,1)	(-16,4)	
L2C 38>	(5,2)	(1,6)	(2,4)	(-13,2)	(-22,2)	(-34,3)	(-17,2)	(-33,2)	(-25,1)	(-28,1)	(-47,1)	(20,1)	(-35,1)	(-51,1)	(-29,1)	(0,1)	
L2C 39>	(-18,1)	(1,10)	(-14,1)	(-15,2)	(-13,2)	(-32,2)	(-34,1)	(-41,1)	(-35,1)	(-46,1)	(-1,7)	(-51,2)	(-27,1)	(-26,1)	(-19,1)	(-2,2)	
L2C 40>	(-39,3)	(-1,8)	(-31,2)	(21,1)	(1,7)	(-6,1)	(-4,1)	(10,1)	(-36,1)	(-23,2)	(-33,1)	(2,1)	(-8,1)	(-41,2)	(-46,1)	(-32,1)	
L2C 41>	(-21,1)	(-41,2)	(-18,1)	(-26,2)	(-1,3)	(-13,1)	(-35,1)	(14,1)	(-31,2)	(-39,1)	(1,6)	(-7,1)	(-40,2)	(-58,1)	(-25,1)	(3,1)	
L2C 42>	(1,4)	(-1,3)	(-8,1)	(-15,1)	(-4,3)	(-45,2)	(0,1)	(-31,2)	(-33,1)	(-12,1)	(-32,3)	(-41,1)	(-26,1)	(-50,1)	(-42,1)	(3,1)	
L2C 43>	(-48,1)	(-50,1)	(1,5)	(-22,1)	(-39,1)	(-42,2)	(-41,1)	(-44,1)	(-17,1)	(-47,1)	(-45,2)	(-53,1)	(1,0)	(1,0)	(1,0)	(1,0)	
L2C 44>	(-1,4)	(2,1)	(-43,4)	(-45,3)	(-36,1)	(-40,1)	(-23,1)	(0,1)	(-29,1)	(-17,1)	(-38,1)	(6,1)	(1,3)	(-53,1)	(-41,1)	(-14,1)	
L2C 45>	(-54,1)	(-46,2)	(12,1)	(-29,1)	(-4,3)	(-1,1)	(-44,1)	(-26,1)	(-5,1)	(-18,1)	(-61,1)	(1,3)	(2,1)	(-50,1)	(-37,1)	(-35,1)	
L2C 46>	(1,9)	(-21,1)	(-7,1)	(-55,1)	(-14,1)	(-49,1)	(-1,4)	(-22,1)	(-37,2)	(-39,2)	(-17,2)	(-45,1)	(-34,1)	(-8,1)	(2,1)	(-33,1)	
L2C 47>	(2,1)	(-23,1)	(-50,1)	(-1,6)	(1,4)	(-20,2)	(-28,1)	(-12,1)	(-13,1)	(-51,1)	(-53,1)	(3,1)	(-4,2)	(-39,1)	(5,1)	(-43,1)	
L2C 48>	(1,2)	(8,1)	(-3,1)	(-1,15)	(-35,1)	(0,1)	(-2,1)	(-15,1)	(-33,1)	(-44,1)	(-55,1)	(-57,1)	(-30,1)	(1,0)	(1,0)	(1,0)	
L2C 49>	(-11,1)	(-38,1)	(1,2)	(7,1)	(-15,1)	(-4,2)	(-27,1)	(-17,1)	(-49,1)	(-1,4)	(-48,2)	(-22,1)	(-12,1)	(-9,1)	(1,0)	(1,0)	
L2C 50>	(-12,2)	(-15,1)	(-39,1)	(-34,1)	(-41,1)	(-17,1)	(-49,3)	(-55,1)	(-19,1)	(-24,1)	(-47,2)	(-22,1)	(-18,1)	(-50,1)	(-9,1)	(1,1)	
L2C 51>	(1,2)	(-10,1)	(-45,1)	(-1,1)	(-52,1)	(-37,1)	(-41,1)	(-32,1)	(-27,1)	(-49,1)	(-17,2)	(-31,1)	(-15,1)	(-14,1)	(-11,1)	(-35,1)	
L2C 52>	(-1,1)	(-49,2)	(-18,1)	(-43,1)	(-61,1)	(-16,1)	(-27,1)	(-56,1)	(-2,1)	(-51,1)	(-42,1)	(-53,1)	(1,0)	(1,0)	(1,0)	(1,0)	
L2C 53>	(-52,3)	(-45,1)	(1,4)	(-19,1)	(-1,1)	(-4,1)	(-51,1)	(-16,1)	(-61,1)	(-39,1)	(1,0)	(1,0)	(1,0)	(1,0)	(1,0)	(1,0)	
L2C 54>	(-47,1)	(-14,1)	(-53,3)	(-49,1)	(1,1)	(-25,1)	(-23,1)	(-54,1)	(2,1)	(-29,1)	(1,0)	(1,0)	(1,0)	(1,0)	(1,0)	(1,0)	
L2C 55>	(-17,1)	(-54,1)	(-50,1)	(-33,1)	(-44,1)	(-53,1)	(-39,1)	(-9,1)	(-52,1)	(-49,2)	(1,0)	(1,0)	(1,0)	(1,0)	(1,0)	(1,0)	
L2C 56>	(1,2)	(-1,1)	(-53,12)	(-17,1)	(-24,1)	(-2,1)	(1,0)	(1,0)	(1,0)	(1,0)	(1,0)	(1,0)	(1,0)	(1,0)	(1,0)	(1,0)	
L2C 57>	(-40,1)	(1,5)	(-9,1)	(-50,1)	(-59,1)	(1,0)	(1,0)	(1,0)	(1,0)	(1,0)	(1,0)	(1,0)	(1,0)	(1,0)	(1,0)	(1,0)	
L2C 58>	(2,1)	(-54,1)	(-49,1)	(1,0)	(1,0)	(1,0)	(1,0)	(1,0)	(1,0)	(1,0)	(1,0)	(1,0)	(1,0)	(1,0)	(1,0)	(1,0)	
L2C 59>	(-35,1)	(-47,1)	(1,1)	(-48,1)	(-23,1)	(-53,1)	(1,0)	(1,0)	(1,0)	(1,0)	(1,0)	(1,0)	(1,0)	(1,0)	(1,0)	(1,0)	
L2C 60>	(-23,1)	(1,0)	(1,0)	(1,0)	(1,0)	(1,0)	(1,0)	(1,0)	(1,0)	(1,0)	(1,0)	(1,0)	(1,0)	(1,0)	(1,0)	(1,0)	
L2C 61>	(1,1)	(-20,1)	(1,0)	(1,0)	(1,0)	(1,0)	(1,0)	(1,0)	(1,0)	(1,0)	(1,0)	(1,0)	(1,0)	(1,0)	(1,0)	(1,0)	
L2C 62>	(-61,1)	(1,0)	(1,0)	(1,0)	(1,0)	(1,0)	(1,0)	(1,0)	(1,0)	(1,0)	(1,0)	(1,0)	(1,0)	(1,0)	(1,0)	(1,0)	
L2C 63>	(-61,1)	(1,0)	(1,0)	(1,0)	(1,0)	(1,0)	(1,0)	(1,0)	(1,0)	(1,0)	(1,0)	(1,0)	(1,0)	(1,0)	(1,0)	(1,0)	

DRAM Statistics
 CHANNEL 0
 RQ ROW_BUFFER_HIT:       2452  ROW_BUFFER_MISS:       2205
 DBUS_CONGESTED:       3511
 WQ ROW_BUFFER_HIT:          0  ROW_BUFFER_MISS:          0  FULL:          0

 AVG_CONGESTED_CYCLE: 6
