
*** ChampSim Multicore Out-of-Order Simulator ***

Warmup Instructions: 1000000
Simulation Instructions: 10000000
Number of CPUs: 1
LLC sets: 2048
LLC ways: 16
Off-chip DRAM Size: 4096 MB Channels: 1 Width: 64-bit Data Rate: 3200 MT/s

CPU 0 runs /home/aniket/Desktop/sem/cs622/cs622-project/champsim/dpc3_traces/644.nab_s-5853B.champsimtrace.xz
Ultra pref. initializing...
Ultra pref. initialized
Ultra pref. initializing...
Ultra pref. initialized

Warmup complete CPU 0 instructions: 1000003 cycles: 500550 (Simulation time: 0 hr 0 min 2 sec) 

Heartbeat CPU 0 instructions: 10000001 cycles: 13586810 heartbeat IPC: 0.736008 cumulative IPC: 0.687744 (Simulation time: 0 hr 0 min 32 sec) 
Finished CPU 0 instructions: 10000000 cycles: 14550161 cumulative IPC: 0.687278 (Simulation time: 0 hr 0 min 35 sec) 

CPU 0 Branch Prediction Accuracy: 99.9322% MPKI: 0.0507 Average ROB Occupancy at Mispredict: 131.702

ChampSim completed all CPUs

Region of Interest Statistics

CPU 0 cumulative IPC: 0.687278 instructions: 10000000 cycles: 14550161
L1D TOTAL     ACCESS:    6478198  HIT:    6426537  MISS:      51661
L1D LOAD      ACCESS:    2105719  HIT:    2100151  MISS:       5568
L1D RFO       ACCESS:    1105413  HIT:    1105347  MISS:         66
L1D PREFETCH  ACCESS:    3267066  HIT:    3221039  MISS:      46027
L1D WRITEBACK ACCESS:          0  HIT:          0  MISS:          0
L1D PREFETCH  REQUESTED:   32783091  ISSUED:   26484130  USEFUL:      42376  USELESS:       8819
L1D AVERAGE MISS LATENCY: 1742.12 cycles
L1I TOTAL     ACCESS:    3806095  HIT:    3805995  MISS:        100
L1I LOAD      ACCESS:    3806095  HIT:    3805995  MISS:        100
L1I RFO       ACCESS:          0  HIT:          0  MISS:          0
L1I PREFETCH  ACCESS:          0  HIT:          0  MISS:          0
L1I WRITEBACK ACCESS:          0  HIT:          0  MISS:          0
L1I PREFETCH  REQUESTED:          0  ISSUED:          0  USEFUL:          0  USELESS:          0
L1I AVERAGE MISS LATENCY: 68.12 cycles
L2C TOTAL     ACCESS:     459484  HIT:     456582  MISS:       2902
L2C LOAD      ACCESS:       5655  HIT:       5550  MISS:        105
L2C RFO       ACCESS:         66  HIT:         49  MISS:         17
L2C PREFETCH  ACCESS:     438690  HIT:     435910  MISS:       2780
L2C WRITEBACK ACCESS:      15073  HIT:      15073  MISS:          0
L2C PREFETCH  REQUESTED:     948955  ISSUED:     653570  USEFUL:        795  USELESS:         24
L2C AVERAGE MISS LATENCY: 149.794 cycles
LLC TOTAL     ACCESS:       2902  HIT:          9  MISS:       2893
LLC LOAD      ACCESS:        102  HIT:          0  MISS:        102
LLC RFO       ACCESS:         17  HIT:          2  MISS:         15
LLC PREFETCH  ACCESS:       2783  HIT:          7  MISS:       2776
LLC WRITEBACK ACCESS:          0  HIT:          0  MISS:          0
LLC PREFETCH  REQUESTED:          0  ISSUED:          0  USEFUL:          2  USELESS:          0
LLC AVERAGE MISS LATENCY: 119.751 cycles
Major fault: 0 Minor fault: 148

L1D -512>	(4,2)	(-40,1)	(20,1)	(2,7)	(-106,1)	(-2,1)	(1,49)	(-1,5)	(137,1)	(0,59)	(-109,1)	(10,1)	(3,1)	(28,3)	(14,1)	(-20,1)	
L1D -511>	(2,71)	(1,124)	(3,6)	(0,4)	(1,0)	(1,0)	(1,0)	(1,0)	(1,0)	(1,0)	(1,0)	(1,0)	(1,0)	(1,0)	(1,0)	(1,0)	
L1D -510>	(1,26)	(6,1)	(3,3)	(4,1)	(1,0)	(1,0)	(1,0)	(1,0)	(1,0)	(1,0)	(1,0)	(1,0)	(1,0)	(1,0)	(1,0)	(1,0)	
L1D -509>	(1,18)	(-1,33)	(2,12)	(3,25)	(0,1)	(6,1)	(1,0)	(1,0)	(1,0)	(1,0)	(1,0)	(1,0)	(1,0)	(1,0)	(1,0)	(1,0)	
L1D -508>	(30,1)	(1,7)	(2,1)	(1,0)	(1,0)	(1,0)	(1,0)	(1,0)	(1,0)	(1,0)	(1,0)	(1,0)	(1,0)	(1,0)	(1,0)	(1,0)	
L1D -507>	(1,8)	(4,1)	(1,0)	(1,0)	(1,0)	(1,0)	(1,0)	(1,0)	(1,0)	(1,0)	(1,0)	(1,0)	(1,0)	(1,0)	(1,0)	(1,0)	
L1D -506>	(-1,4)	(9,2)	(12,1)	(3,1)	(2,4)	(1,3)	(325,1)	(1,0)	(1,0)	(1,0)	(1,0)	(1,0)	(1,0)	(1,0)	(1,0)	(1,0)	
L1D -505>	(1,0)	(1,0)	(1,0)	(1,0)	(1,0)	(1,0)	(1,0)	(1,0)	(1,0)	(1,0)	(1,0)	(1,0)	(1,0)	(1,0)	(1,0)	(1,0)	
L1D -504>	(1,15)	(274,1)	(290,1)	(282,1)	(1,0)	(1,0)	(1,0)	(1,0)	(1,0)	(1,0)	(1,0)	(1,0)	(1,0)	(1,0)	(1,0)	(1,0)	
L1D -503>	(1,3)	(3,2)	(1,0)	(1,0)	(1,0)	(1,0)	(1,0)	(1,0)	(1,0)	(1,0)	(1,0)	(1,0)	(1,0)	(1,0)	(1,0)	(1,0)	
L1D -502>	(48,1)	(176,1)	(244,1)	(166,1)	(22,1)	(2,1)	(1,0)	(1,0)	(1,0)	(1,0)	(1,0)	(1,0)	(1,0)	(1,0)	(1,0)	(1,0)	
L1D -501>	(1,1)	(1,0)	(1,0)	(1,0)	(1,0)	(1,0)	(1,0)	(1,0)	(1,0)	(1,0)	(1,0)	(1,0)	(1,0)	(1,0)	(1,0)	(1,0)	
L1D -500>	(136,1)	(335,1)	(2,1)	(431,1)	(451,1)	(1,0)	(1,0)	(1,0)	(1,0)	(1,0)	(1,0)	(1,0)	(1,0)	(1,0)	(1,0)	(1,0)	
L1D -499>	(214,1)	(1,0)	(1,0)	(1,0)	(1,0)	(1,0)	(1,0)	(1,0)	(1,0)	(1,0)	(1,0)	(1,0)	(1,0)	(1,0)	(1,0)	(1,0)	
L1D -498>	(14,1)	(2,1)	(130,1)	(1,0)	(1,0)	(1,0)	(1,0)	(1,0)	(1,0)	(1,0)	(1,0)	(1,0)	(1,0)	(1,0)	(1,0)	(1,0)	
L1D -497>	(17,1)	(19,3)	(1,0)	(1,0)	(1,0)	(1,0)	(1,0)	(1,0)	(1,0)	(1,0)	(1,0)	(1,0)	(1,0)	(1,0)	(1,0)	(1,0)	
L1D -496>	(425,1)	(509,1)	(467,1)	(322,1)	(1,0)	(1,0)	(1,0)	(1,0)	(1,0)	(1,0)	(1,0)	(1,0)	(1,0)	(1,0)	(1,0)	(1,0)	
L1D -495>	(1,0)	(1,0)	(1,0)	(1,0)	(1,0)	(1,0)	(1,0)	(1,0)	(1,0)	(1,0)	(1,0)	(1,0)	(1,0)	(1,0)	(1,0)	(1,0)	
L1D -494>	(44,1)	(311,1)	(184,1)	(308,1)	(437,1)	(3,2)	(54,1)	(288,1)	(1,0)	(1,0)	(1,0)	(1,0)	(1,0)	(1,0)	(1,0)	(1,0)	
L1D -493>	(303,1)	(190,1)	(1,0)	(1,0)	(1,0)	(1,0)	(1,0)	(1,0)	(1,0)	(1,0)	(1,0)	(1,0)	(1,0)	(1,0)	(1,0)	(1,0)	
L1D -492>	(1,1)	(230,1)	(48,1)	(493,1)	(408,1)	(1,0)	(1,0)	(1,0)	(1,0)	(1,0)	(1,0)	(1,0)	(1,0)	(1,0)	(1,0)	(1,0)	
L1D -491>	(-1,1)	(1,2)	(1,0)	(1,0)	(1,0)	(1,0)	(1,0)	(1,0)	(1,0)	(1,0)	(1,0)	(1,0)	(1,0)	(1,0)	(1,0)	(1,0)	
L1D -490>	(427,1)	(84,1)	(6,1)	(475,1)	(1,1)	(470,1)	(266,1)	(1,0)	(1,0)	(1,0)	(1,0)	(1,0)	(1,0)	(1,0)	(1,0)	(1,0)	
L1D -489>	(1,2)	(2,1)	(1,0)	(1,0)	(1,0)	(1,0)	(1,0)	(1,0)	(1,0)	(1,0)	(1,0)	(1,0)	(1,0)	(1,0)	(1,0)	(1,0)	
L1D -488>	(1,2)	(80,1)	(319,1)	(358,1)	(248,1)	(414,1)	(112,1)	(1,0)	(1,0)	(1,0)	(1,0)	(1,0)	(1,0)	(1,0)	(1,0)	(1,0)	
L1D -487>	(1,0)	(1,0)	(1,0)	(1,0)	(1,0)	(1,0)	(1,0)	(1,0)	(1,0)	(1,0)	(1,0)	(1,0)	(1,0)	(1,0)	(1,0)	(1,0)	
L1D -486>	(1,3)	(2,1)	(463,1)	(1,0)	(1,0)	(1,0)	(1,0)	(1,0)	(1,0)	(1,0)	(1,0)	(1,0)	(1,0)	(1,0)	(1,0)	(1,0)	
L1D -485>	(1,0)	(1,0)	(1,0)	(1,0)	(1,0)	(1,0)	(1,0)	(1,0)	(1,0)	(1,0)	(1,0)	(1,0)	(1,0)	(1,0)	(1,0)	(1,0)	
L1D -484>	(435,1)	(94,1)	(314,1)	(228,1)	(1,0)	(1,0)	(1,0)	(1,0)	(1,0)	(1,0)	(1,0)	(1,0)	(1,0)	(1,0)	(1,0)	(1,0)	
L1D -483>	(1,0)	(1,0)	(1,0)	(1,0)	(1,0)	(1,0)	(1,0)	(1,0)	(1,0)	(1,0)	(1,0)	(1,0)	(1,0)	(1,0)	(1,0)	(1,0)	
L1D -482>	(271,1)	(204,1)	(327,1)	(126,1)	(389,1)	(465,1)	(68,1)	(449,1)	(301,1)	(1,0)	(1,0)	(1,0)	(1,0)	(1,0)	(1,0)	(1,0)	
L1D -481>	(1,1)	(1,0)	(1,0)	(1,0)	(1,0)	(1,0)	(1,0)	(1,0)	(1,0)	(1,0)	(1,0)	(1,0)	(1,0)	(1,0)	(1,0)	(1,0)	
L1D -480>	(106,1)	(248,1)	(2,1)	(146,1)	(355,1)	(1,2)	(345,1)	(497,1)	(14,1)	(148,1)	(1,0)	(1,0)	(1,0)	(1,0)	(1,0)	(1,0)	
L1D -479>	(-1,1)	(3,2)	(263,1)	(1,0)	(1,0)	(1,0)	(1,0)	(1,0)	(1,0)	(1,0)	(1,0)	(1,0)	(1,0)	(1,0)	(1,0)	(1,0)	
L1D -478>	(305,1)	(479,1)	(1,12)	(14,1)	(285,1)	(481,1)	(327,1)	(124,1)	(452,1)	(92,1)	(1,0)	(1,0)	(1,0)	(1,0)	(1,0)	(1,0)	
L1D -477>	(54,1)	(1,3)	(1,0)	(1,0)	(1,0)	(1,0)	(1,0)	(1,0)	(1,0)	(1,0)	(1,0)	(1,0)	(1,0)	(1,0)	(1,0)	(1,0)	
L1D -476>	(273,1)	(474,1)	(104,1)	(1,2)	(3,1)	(295,1)	(134,1)	(172,1)	(329,1)	(168,1)	(1,0)	(1,0)	(1,0)	(1,0)	(1,0)	(1,0)	
L1D -475>	(1,2)	(303,1)	(344,1)	(1,0)	(1,0)	(1,0)	(1,0)	(1,0)	(1,0)	(1,0)	(1,0)	(1,0)	(1,0)	(1,0)	(1,0)	(1,0)	
L1D -474>	(220,2)	(431,1)	(433,1)	(298,1)	(194,1)	(2,1)	(116,1)	(1,0)	(1,0)	(1,0)	(1,0)	(1,0)	(1,0)	(1,0)	(1,0)	(1,0)	
L1D -473>	(-1,1)	(463,1)	(404,1)	(1,0)	(1,0)	(1,0)	(1,0)	(1,0)	(1,0)	(1,0)	(1,0)	(1,0)	(1,0)	(1,0)	(1,0)	(1,0)	
L1D -472>	(1,3)	(0,1)	(328,1)	(256,1)	(370,1)	(230,1)	(257,1)	(1,0)	(1,0)	(1,0)	(1,0)	(1,0)	(1,0)	(1,0)	(1,0)	(1,0)	
L1D -471>	(1,2)	(255,1)	(6,1)	(-1,1)	(484,1)	(1,0)	(1,0)	(1,0)	(1,0)	(1,0)	(1,0)	(1,0)	(1,0)	(1,0)	(1,0)	(1,0)	
L1D -470>	(293,1)	(1,3)	(166,2)	(323,1)	(351,1)	(277,1)	(240,1)	(-6,1)	(88,1)	(361,1)	(442,1)	(6,1)	(409,1)	(8,1)	(473,1)	(108,1)	
L1D -469>	(-1,1)	(1,0)	(1,0)	(1,0)	(1,0)	(1,0)	(1,0)	(1,0)	(1,0)	(1,0)	(1,0)	(1,0)	(1,0)	(1,0)	(1,0)	(1,0)	
L1D -468>	(261,1)	(38,1)	(360,1)	(118,1)	(385,1)	(290,1)	(289,1)	(-36,1)	(423,1)	(454,1)	(1,3)	(146,1)	(-1,1)	(1,0)	(1,0)	(1,0)	
L1D -467>	(-1,3)	(1,5)	(1,0)	(1,0)	(1,0)	(1,0)	(1,0)	(1,0)	(1,0)	(1,0)	(1,0)	(1,0)	(1,0)	(1,0)	(1,0)	(1,0)	
L1D -466>	(52,1)	(274,1)	(307,1)	(12,1)	(18,1)	(333,1)	(188,1)	(96,1)	(16,1)	(19,1)	(322,1)	(214,1)	(424,1)	(48,1)	(1,0)	(1,0)	
L1D -465>	(113,1)	(1,0)	(1,0)	(1,0)	(1,0)	(1,0)	(1,0)	(1,0)	(1,0)	(1,0)	(1,0)	(1,0)	(1,0)	(1,0)	(1,0)	(1,0)	
L1D -464>	(64,1)	(1,1)	(66,3)	(164,1)	(441,1)	(10,1)	(452,2)	(262,1)	(1,0)	(1,0)	(1,0)	(1,0)	(1,0)	(1,0)	(1,0)	(1,0)	
L1D -463>	(1,2)	(-1,2)	(2,1)	(389,1)	(464,1)	(1,0)	(1,0)	(1,0)	(1,0)	(1,0)	(1,0)	(1,0)	(1,0)	(1,0)	(1,0)	(1,0)	
L1D -462>	(52,1)	(269,1)	(14,1)	(4,1)	(347,1)	(479,1)	(258,1)	(136,1)	(271,1)	(220,1)	(267,1)	(1,0)	(1,0)	(1,0)	(1,0)	(1,0)	
L1D -461>	(-1,4)	(1,0)	(1,0)	(1,0)	(1,0)	(1,0)	(1,0)	(1,0)	(1,0)	(1,0)	(1,0)	(1,0)	(1,0)	(1,0)	(1,0)	(1,0)	
L1D -460>	(1,2)	(106,1)	(259,1)	(441,1)	(224,1)	(220,1)	(10,1)	(100,1)	(-22,1)	(182,1)	(148,1)	(397,1)	(56,1)	(1,0)	(1,0)	(1,0)	
L1D -459>	(1,1)	(-6,1)	(-1,5)	(1,0)	(1,0)	(1,0)	(1,0)	(1,0)	(1,0)	(1,0)	(1,0)	(1,0)	(1,0)	(1,0)	(1,0)	(1,0)	
L1D -458>	(428,1)	(96,1)	(361,1)	(1,1)	(9,1)	(253,1)	(108,1)	(309,1)	(399,1)	(299,1)	(40,1)	(6,1)	(1,0)	(1,0)	(1,0)	(1,0)	
L1D -457>	(-1,5)	(1,0)	(1,0)	(1,0)	(1,0)	(1,0)	(1,0)	(1,0)	(1,0)	(1,0)	(1,0)	(1,0)	(1,0)	(1,0)	(1,0)	(1,0)	
L1D -456>	(1,1)	(104,1)	(68,1)	(234,1)	(130,1)	(279,1)	(435,1)	(450,1)	(362,1)	(-2,1)	(453,1)	(202,1)	(255,1)	(48,1)	(392,1)	(317,1)	
L1D -455>	(-1,4)	(1,1)	(204,1)	(95,1)	(1,0)	(1,0)	(1,0)	(1,0)	(1,0)	(1,0)	(1,0)	(1,0)	(1,0)	(1,0)	(1,0)	(1,0)	
L1D -454>	(1,1)	(343,1)	(-40,1)	(419,1)	(470,1)	(280,1)	(285,1)	(36,1)	(223,1)	(393,1)	(368,1)	(249,1)	(425,1)	(32,1)	(128,1)	(357,1)	
L1D -453>	(454,1)	(-1,1)	(1,0)	(1,0)	(1,0)	(1,0)	(1,0)	(1,0)	(1,0)	(1,0)	(1,0)	(1,0)	(1,0)	(1,0)	(1,0)	(1,0)	
L1D -452>	(40,1)	(-1,2)	(118,1)	(429,1)	(371,1)	(196,1)	(363,1)	(24,1)	(324,1)	(234,1)	(433,1)	(272,1)	(340,1)	(315,1)	(0,1)	(269,1)	
L1D -451>	(1,3)	(-1,4)	(402,1)	(371,1)	(1,0)	(1,0)	(1,0)	(1,0)	(1,0)	(1,0)	(1,0)	(1,0)	(1,0)	(1,0)	(1,0)	(1,0)	
L1D -450>	(483,1)	(330,1)	(5,1)	(258,1)	(274,1)	(-18,1)	(368,1)	(1,2)	(391,1)	(238,1)	(289,2)	(56,1)	(363,1)	(280,1)	(100,1)	(334,1)	
L1D -449>	(478,1)	(267,1)	(2,3)	(-34,1)	(-1,3)	(230,1)	(208,1)	(1,0)	(1,0)	(1,0)	(1,0)	(1,0)	(1,0)	(1,0)	(1,0)	(1,0)	
L1D -448>	(1,2)	(62,1)	(248,1)	(374,1)	(-9,1)	(181,1)	(297,1)	(413,1)	(411,1)	(102,1)	(146,1)	(212,1)	(-38,1)	(1,0)	(1,0)	(1,0)	
L1D -447>	(1,1)	(-1,5)	(247,1)	(1,0)	(1,0)	(1,0)	(1,0)	(1,0)	(1,0)	(1,0)	(1,0)	(1,0)	(1,0)	(1,0)	(1,0)	(1,0)	
L1D -446>	(1,4)	(-1,3)	(487,1)	(380,1)	(200,1)	(160,1)	(425,1)	(368,1)	(248,1)	(32,1)	(1,0)	(1,0)	(1,0)	(1,0)	(1,0)	(1,0)	
L1D -445>	(220,1)	(224,1)	(-1,3)	(368,1)	(70,1)	(-6,1)	(151,1)	(1,0)	(1,0)	(1,0)	(1,0)	(1,0)	(1,0)	(1,0)	(1,0)	(1,0)	
L1D -444>	(1,2)	(300,1)	(196,1)	(447,1)	(459,1)	(28,1)	(2,1)	(305,1)	(10,1)	(152,1)	(96,1)	(426,1)	(451,1)	(278,1)	(1,0)	(1,0)	
L1D -443>	(1,1)	(-1,4)	(1,0)	(1,0)	(1,0)	(1,0)	(1,0)	(1,0)	(1,0)	(1,0)	(1,0)	(1,0)	(1,0)	(1,0)	(1,0)	(1,0)	
L1D -442>	(256,1)	(444,2)	(2,2)	(432,1)	(364,1)	(381,1)	(240,1)	(423,1)	(-1,1)	(204,1)	(152,1)	(293,1)	(405,1)	(190,1)	(434,1)	(251,1)	
L1D -441>	(-1,9)	(1,3)	(1,0)	(1,0)	(1,0)	(1,0)	(1,0)	(1,0)	(1,0)	(1,0)	(1,0)	(1,0)	(1,0)	(1,0)	(1,0)	(1,0)	
L1D -440>	(1,13)	(-1,2)	(92,1)	(323,1)	(276,2)	(2,1)	(-8,1)	(367,1)	(425,1)	(212,1)	(224,1)	(463,2)	(431,1)	(184,1)	(24,1)	(421,1)	
L1D -439>	(-1,7)	(234,1)	(1,0)	(1,0)	(1,0)	(1,0)	(1,0)	(1,0)	(1,0)	(1,0)	(1,0)	(1,0)	(1,0)	(1,0)	(1,0)	(1,0)	
L1D -438>	(380,1)	(-1,1)	(104,1)	(180,1)	(288,1)	(88,1)	(174,1)	(409,1)	(177,1)	(438,1)	(1,1)	(152,1)	(52,1)	(490,1)	(468,1)	(281,1)	
L1D -437>	(2,1)	(391,1)	(6,1)	(-10,1)	(1,2)	(-1,2)	(416,1)	(0,1)	(-36,1)	(1,0)	(1,0)	(1,0)	(1,0)	(1,0)	(1,0)	(1,0)	
L1D -436>	(1,3)	(287,1)	(2,5)	(-16,1)	(454,1)	(327,1)	(28,1)	(26,1)	(437,1)	(24,1)	(499,1)	(118,1)	(361,1)	(375,1)	(483,1)	(476,1)	
L1D -435>	(-1,4)	(309,1)	(36,1)	(1,0)	(1,0)	(1,0)	(1,0)	(1,0)	(1,0)	(1,0)	(1,0)	(1,0)	(1,0)	(1,0)	(1,0)	(1,0)	
L1D -434>	(1,5)	(348,1)	(218,1)	(326,1)	(422,1)	(178,1)	(274,1)	(416,1)	(405,1)	(0,1)	(76,1)	(288,1)	(447,1)	(321,1)	(1,0)	(1,0)	
L1D -433>	(-1,5)	(1,1)	(178,1)	(1,0)	(1,0)	(1,0)	(1,0)	(1,0)	(1,0)	(1,0)	(1,0)	(1,0)	(1,0)	(1,0)	(1,0)	(1,0)	
L1D -432>	(12,1)	(1,2)	(465,1)	(370,1)	(162,2)	(353,1)	(38,1)	(483,1)	(273,1)	(385,1)	(220,1)	(351,1)	(98,1)	(114,1)	(393,1)	(339,1)	
L1D -431>	(412,1)	(-1,7)	(1,3)	(354,1)	(3,4)	(150,1)	(353,1)	(1,0)	(1,0)	(1,0)	(1,0)	(1,0)	(1,0)	(1,0)	(1,0)	(1,0)	
L1D -430>	(411,1)	(1,2)	(156,1)	(246,1)	(258,1)	(14,1)	(184,1)	(431,1)	(108,1)	(-46,1)	(70,1)	(68,1)	(289,1)	(270,1)	(432,1)	(381,1)	
L1D -429>	(-1,8)	(383,1)	(465,1)	(460,1)	(1,0)	(1,0)	(1,0)	(1,0)	(1,0)	(1,0)	(1,0)	(1,0)	(1,0)	(1,0)	(1,0)	(1,0)	
L1D -428>	(1,5)	(-1,1)	(354,1)	(267,2)	(231,1)	(382,1)	(126,1)	(257,1)	(-46,1)	(331,1)	(130,1)	(436,1)	(302,1)	(164,1)	(178,1)	(274,1)	
L1D -427>	(-1,8)	(342,1)	(426,1)	(1,0)	(1,0)	(1,0)	(1,0)	(1,0)	(1,0)	(1,0)	(1,0)	(1,0)	(1,0)	(1,0)	(1,0)	(1,0)	
L1D -426>	(231,1)	(134,1)	(156,1)	(-58,1)	(436,2)	(6,1)	(206,1)	(416,1)	(232,1)	(26,1)	(166,1)	(192,1)	(407,1)	(253,1)	(401,1)	(361,1)	
L1D -425>	(-1,11)	(3,3)	(89,1)	(1,0)	(1,0)	(1,0)	(1,0)	(1,0)	(1,0)	(1,0)	(1,0)	(1,0)	(1,0)	(1,0)	(1,0)	(1,0)	
L1D -424>	(174,1)	(-28,1)	(152,1)	(315,1)	(184,1)	(122,2)	(42,1)	(435,1)	(204,1)	(148,1)	(247,1)	(88,1)	(38,2)	(16,1)	(301,2)	(345,1)	
L1D -423>	(-1,4)	(419,1)	(90,1)	(1,1)	(422,1)	(1,0)	(1,0)	(1,0)	(1,0)	(1,0)	(1,0)	(1,0)	(1,0)	(1,0)	(1,0)	(1,0)	
L1D -422>	(317,1)	(424,1)	(425,1)	(448,1)	(54,1)	(6,1)	(64,1)	(4,1)	(2,1)	(327,1)	(384,1)	(335,1)	(222,1)	(34,1)	(26,1)	(398,1)	
L1D -421>	(1,1)	(-1,13)	(284,1)	(17,1)	(399,1)	(1,0)	(1,0)	(1,0)	(1,0)	(1,0)	(1,0)	(1,0)	(1,0)	(1,0)	(1,0)	(1,0)	
L1D -420>	(-44,1)	(18,1)	(416,1)	(421,1)	(264,1)	(419,1)	(225,1)	(84,1)	(236,1)	(336,1)	(459,1)	(162,1)	(381,1)	(365,1)	(284,1)	(180,1)	
L1D -419>	(-1,13)	(1,1)	(3,3)	(84,1)	(1,0)	(1,0)	(1,0)	(1,0)	(1,0)	(1,0)	(1,0)	(1,0)	(1,0)	(1,0)	(1,0)	(1,0)	
L1D -418>	(1,3)	(421,1)	(-1,1)	(178,1)	(320,1)	(-10,1)	(384,1)	(396,1)	(118,1)	(352,1)	(343,1)	(325,1)	(479,1)	(14,2)	(-44,1)	(-60,1)	
L1D -417>	(-1,10)	(382,1)	(418,1)	(1,0)	(1,0)	(1,0)	(1,0)	(1,0)	(1,0)	(1,0)	(1,0)	(1,0)	(1,0)	(1,0)	(1,0)	(1,0)	
L1D -416>	(414,1)	(-16,1)	(375,1)	(301,1)	(320,1)	(317,1)	(187,1)	(327,1)	(421,1)	(72,1)	(30,1)	(100,1)	(253,1)	(124,1)	(86,1)	(394,1)	
L1D -415>	(2,2)	(290,1)	(1,1)	(-1,6)	(60,1)	(-34,1)	(1,0)	(1,0)	(1,0)	(1,0)	(1,0)	(1,0)	(1,0)	(1,0)	(1,0)	(1,0)	
L1D -414>	(1,1)	(-1,3)	(335,1)	(293,1)	(-92,1)	(475,1)	(24,1)	(194,1)	(473,1)	(-26,1)	(421,1)	(414,1)	(62,1)	(1,0)	(1,0)	(1,0)	
L1D -413>	(1,1)	(-1,8)	(34,1)	(459,1)	(461,1)	(1,0)	(1,0)	(1,0)	(1,0)	(1,0)	(1,0)	(1,0)	(1,0)	(1,0)	(1,0)	(1,0)	
L1D -412>	(224,1)	(420,1)	(321,1)	(306,1)	(491,1)	(385,1)	(284,1)	(253,1)	(58,1)	(3,1)	(114,1)	(326,1)	(411,1)	(296,1)	(100,1)	(12,1)	
L1D -411>	(-1,7)	(268,1)	(317,1)	(389,1)	(88,1)	(359,1)	(415,1)	(1,0)	(1,0)	(1,0)	(1,0)	(1,0)	(1,0)	(1,0)	(1,0)	(1,0)	
L1D -410>	(388,1)	(19,1)	(191,1)	(116,1)	(126,1)	(321,1)	(302,1)	(239,1)	(349,1)	(266,1)	(-88,1)	(220,1)	(481,1)	(200,1)	(184,1)	(377,1)	
L1D -409>	(-1,8)	(-8,1)	(251,1)	(1,1)	(1,0)	(1,0)	(1,0)	(1,0)	(1,0)	(1,0)	(1,0)	(1,0)	(1,0)	(1,0)	(1,0)	(1,0)	
L1D -408>	(1,8)	(321,1)	(186,1)	(2,2)	(226,1)	(358,1)	(-6,1)	(273,1)	(208,1)	(305,1)	(104,1)	(42,1)	(446,1)	(18,1)	(92,1)	(217,1)	
L1D -407>	(1,4)	(-1,11)	(263,1)	(280,1)	(1,0)	(1,0)	(1,0)	(1,0)	(1,0)	(1,0)	(1,0)	(1,0)	(1,0)	(1,0)	(1,0)	(1,0)	
L1D -406>	(1,3)	(365,1)	(94,1)	(34,1)	(72,1)	(390,1)	(-1,1)	(84,1)	(283,1)	(112,1)	(78,1)	(-62,1)	(-44,1)	(416,1)	(258,1)	(86,1)	
L1D -405>	(-1,13)	(390,1)	(2,1)	(8,1)	(-76,1)	(1,0)	(1,0)	(1,0)	(1,0)	(1,0)	(1,0)	(1,0)	(1,0)	(1,0)	(1,0)	(1,0)	
L1D -404>	(297,1)	(247,1)	(315,1)	(391,1)	(275,1)	(397,1)	(299,1)	(240,1)	(385,1)	(450,1)	(440,1)	(49,1)	(386,1)	(232,1)	(184,1)	(477,1)	
L1D -403>	(1,2)	(-1,12)	(310,1)	(293,1)	(268,1)	(227,1)	(9,1)	(106,1)	(1,0)	(1,0)	(1,0)	(1,0)	(1,0)	(1,0)	(1,0)	(1,0)	
L1D -402>	(5,2)	(1,3)	(422,1)	(168,1)	(239,1)	(-30,1)	(-54,1)	(152,1)	(294,1)	(-24,1)	(411,1)	(-14,1)	(-98,1)	(432,1)	(102,1)	(172,1)	
L1D -401>	(-1,7)	(1,1)	(209,1)	(-110,1)	(317,1)	(9,2)	(282,1)	(402,1)	(1,0)	(1,0)	(1,0)	(1,0)	(1,0)	(1,0)	(1,0)	(1,0)	
L1D -400>	(2,2)	(410,1)	(1,3)	(271,1)	(352,1)	(-20,1)	(395,1)	(184,1)	(403,1)	(34,1)	(387,1)	(48,1)	(26,1)	(401,1)	(156,1)	(323,1)	
L1D -399>	(-1,10)	(284,1)	(1,1)	(80,1)	(60,1)	(22,1)	(241,1)	(1,0)	(1,0)	(1,0)	(1,0)	(1,0)	(1,0)	(1,0)	(1,0)	(1,0)	
L1D -398>	(1,2)	(396,1)	(32,1)	(385,1)	(-1,1)	(389,1)	(121,1)	(162,1)	(382,1)	(252,1)	(150,1)	(182,1)	(169,1)	(80,1)	(236,1)	(362,1)	
L1D -397>	(-1,16)	(1,1)	(252,1)	(208,1)	(140,1)	(180,1)	(1,0)	(1,0)	(1,0)	(1,0)	(1,0)	(1,0)	(1,0)	(1,0)	(1,0)	(1,0)	
L1D -396>	(4,1)	(6,1)	(1,5)	(60,1)	(437,1)	(434,1)	(16,1)	(308,1)	(14,1)	(208,1)	(168,1)	(36,1)	(-4,1)	(297,1)	(195,1)	(46,1)	
L1D -395>	(-1,15)	(1,1)	(232,1)	(122,1)	(1,0)	(1,0)	(1,0)	(1,0)	(1,0)	(1,0)	(1,0)	(1,0)	(1,0)	(1,0)	(1,0)	(1,0)	
L1D -394>	(464,1)	(407,1)	(367,1)	(-68,1)	(416,1)	(-1,2)	(265,1)	(395,1)	(74,1)	(353,1)	(26,1)	(221,1)	(89,1)	(478,1)	(82,1)	(430,1)	
L1D -393>	(-1,17)	(1,2)	(407,1)	(26,1)	(400,1)	(1,0)	(1,0)	(1,0)	(1,0)	(1,0)	(1,0)	(1,0)	(1,0)	(1,0)	(1,0)	(1,0)	
L1D -392>	(1,6)	(491,1)	(32,1)	(255,1)	(14,1)	(394,1)	(170,1)	(340,1)	(-38,1)	(454,1)	(345,1)	(252,1)	(188,1)	(382,1)	(239,1)	(289,1)	
L1D -391>	(-1,11)	(441,1)	(355,1)	(10,1)	(392,1)	(-28,1)	(1,0)	(1,0)	(1,0)	(1,0)	(1,0)	(1,0)	(1,0)	(1,0)	(1,0)	(1,0)	
L1D -390>	(436,1)	(148,1)	(306,1)	(46,1)	(181,1)	(441,1)	(183,1)	(227,1)	(252,1)	(233,1)	(172,1)	(44,1)	(120,1)	(150,1)	(305,1)	(309,1)	
L1D -389>	(-1,14)	(5,1)	(165,1)	(418,1)	(-42,1)	(350,1)	(3,1)	(231,1)	(192,1)	(325,1)	(1,0)	(1,0)	(1,0)	(1,0)	(1,0)	(1,0)	
L1D -388>	(-80,1)	(-58,1)	(-83,1)	(142,1)	(-1,2)	(2,2)	(310,1)	(3,1)	(309,1)	(429,1)	(473,1)	(174,1)	(156,1)	(1,1)	(124,1)	(387,1)	
L1D -387>	(-1,18)	(204,1)	(213,1)	(314,1)	(386,1)	(388,1)	(28,1)	(1,0)	(1,0)	(1,0)	(1,0)	(1,0)	(1,0)	(1,0)	(1,0)	(1,0)	
L1D -386>	(-2,1)	(166,1)	(44,1)	(124,1)	(357,1)	(112,1)	(60,1)	(396,1)	(325,1)	(266,1)	(150,1)	(311,1)	(400,2)	(198,1)	(168,1)	(305,1)	
L1D -385>	(1,1)	(-1,8)	(152,1)	(372,1)	(2,1)	(326,1)	(130,1)	(210,1)	(381,1)	(-28,1)	(52,1)	(1,0)	(1,0)	(1,0)	(1,0)	(1,0)	
L1D -384>	(54,1)	(1,3)	(247,1)	(242,1)	(264,1)	(301,1)	(202,1)	(2,1)	(-82,1)	(323,1)	(-1,1)	(283,1)	(368,1)	(485,1)	(60,1)	(385,1)	
L1D -383>	(-1,11)	(1,1)	(-40,1)	(4,2)	(425,1)	(168,1)	(1,0)	(1,0)	(1,0)	(1,0)	(1,0)	(1,0)	(1,0)	(1,0)	(1,0)	(1,0)	
L1D -382>	(138,1)	(1,6)	(383,1)	(272,1)	(36,1)	(152,2)	(-22,1)	(367,1)	(228,1)	(371,1)	(342,1)	(231,1)	(94,1)	(-96,1)	(289,1)	(284,1)	
L1D -381>	(-1,15)	(318,1)	(362,1)	(176,1)	(274,1)	(443,1)	(1,0)	(1,0)	(1,0)	(1,0)	(1,0)	(1,0)	(1,0)	(1,0)	(1,0)	(1,0)	
L1D -380>	(241,1)	(181,1)	(20,1)	(108,1)	(409,1)	(168,1)	(301,1)	(1,3)	(72,1)	(250,1)	(328,1)	(124,2)	(463,1)	(46,1)	(34,1)	(413,1)	
L1D -379>	(1,2)	(-1,17)	(432,1)	(180,1)	(261,1)	(378,1)	(1,0)	(1,0)	(1,0)	(1,0)	(1,0)	(1,0)	(1,0)	(1,0)	(1,0)	(1,0)	
L1D -378>	(-14,1)	(190,1)	(366,1)	(-74,1)	(-10,1)	(76,1)	(138,1)	(275,1)	(379,1)	(262,1)	(-1,2)	(88,1)	(93,1)	(342,1)	(259,1)	(142,1)	
L1D -377>	(1,1)	(-1,14)	(178,1)	(274,1)	(1,0)	(1,0)	(1,0)	(1,0)	(1,0)	(1,0)	(1,0)	(1,0)	(1,0)	(1,0)	(1,0)	(1,0)	
L1D -376>	(45,1)	(292,1)	(238,1)	(1,2)	(247,1)	(60,1)	(289,1)	(72,1)	(336,1)	(269,2)	(344,1)	(58,1)	(-64,1)	(433,1)	(134,1)	(307,1)	
L1D -375>	(-1,16)	(227,1)	(70,1)	(139,1)	(1,0)	(1,0)	(1,0)	(1,0)	(1,0)	(1,0)	(1,0)	(1,0)	(1,0)	(1,0)	(1,0)	(1,0)	
L1D -374>	(3,2)	(-36,1)	(-110,1)	(228,1)	(96,1)	(384,1)	(12,1)	(158,1)	(132,1)	(315,1)	(-78,1)	(489,1)	(-98,1)	(168,1)	(456,1)	(-34,2)	
L1D -373>	(-1,12)	(66,1)	(1,0)	(1,0)	(1,0)	(1,0)	(1,0)	(1,0)	(1,0)	(1,0)	(1,0)	(1,0)	(1,0)	(1,0)	(1,0)	(1,0)	
L1D -372>	(1,5)	(125,1)	(411,1)	(498,1)	(375,1)	(371,1)	(0,1)	(34,2)	(289,1)	(165,1)	(-60,1)	(-28,1)	(160,1)	(429,1)	(239,1)	(360,1)	
L1D -371>	(-1,18)	(294,1)	(368,1)	(1,0)	(1,0)	(1,0)	(1,0)	(1,0)	(1,0)	(1,0)	(1,0)	(1,0)	(1,0)	(1,0)	(1,0)	(1,0)	
L1D -370>	(-52,1)	(1,3)	(244,1)	(271,1)	(364,1)	(-32,1)	(102,1)	(60,1)	(140,1)	(124,1)	(-112,1)	(8,1)	(-64,1)	(28,1)	(154,1)	(320,1)	
L1D -369>	(-1,20)	(-78,1)	(116,1)	(128,1)	(102,1)	(207,1)	(194,1)	(1,0)	(1,0)	(1,0)	(1,0)	(1,0)	(1,0)	(1,0)	(1,0)	(1,0)	
L1D -368>	(1,3)	(32,1)	(108,1)	(155,1)	(198,1)	(-18,1)	(12,1)	(259,1)	(466,1)	(262,1)	(296,1)	(-1,2)	(344,1)	(369,1)	(425,1)	(397,1)	
L1D -367>	(1,1)	(-1,20)	(182,1)	(238,1)	(1,0)	(1,0)	(1,0)	(1,0)	(1,0)	(1,0)	(1,0)	(1,0)	(1,0)	(1,0)	(1,0)	(1,0)	
L1D -366>	(1,2)	(408,1)	(462,1)	(-1,3)	(-4,1)	(94,1)	(239,1)	(382,1)	(390,1)	(405,1)	(-104,1)	(311,1)	(98,1)	(166,1)	(-8,1)	(407,1)	
L1D -365>	(-1,14)	(364,1)	(208,1)	(302,1)	(189,1)	(1,0)	(1,0)	(1,0)	(1,0)	(1,0)	(1,0)	(1,0)	(1,0)	(1,0)	(1,0)	(1,0)	
L1D -364>	(401,1)	(3,1)	(1,3)	(166,1)	(116,1)	(237,1)	(-28,1)	(425,1)	(418,1)	(56,1)	(-136,1)	(22,1)	(259,1)	(437,1)	(299,1)	(-1,2)	
L1D -363>	(1,2)	(-1,18)	(349,1)	(54,1)	(390,1)	(1,0)	(1,0)	(1,0)	(1,0)	(1,0)	(1,0)	(1,0)	(1,0)	(1,0)	(1,0)	(1,0)	
L1D -362>	(1,2)	(68,1)	(414,1)	(455,1)	(367,2)	(-108,1)	(285,1)	(325,1)	(142,1)	(332,1)	(202,1)	(-1,1)	(334,2)	(396,1)	(233,1)	(86,1)	
L1D -361>	(-1,25)	(1,3)	(362,1)	(409,1)	(1,0)	(1,0)	(1,0)	(1,0)	(1,0)	(1,0)	(1,0)	(1,0)	(1,0)	(1,0)	(1,0)	(1,0)	
L1D -360>	(1,4)	(369,1)	(20,1)	(361,1)	(194,1)	(269,1)	(195,1)	(417,1)	(347,1)	(273,1)	(225,1)	(-114,1)	(130,1)	(204,1)	(-12,1)	(-1,1)	
L1D -359>	(1,3)	(-1,15)	(16,1)	(333,1)	(115,1)	(1,0)	(1,0)	(1,0)	(1,0)	(1,0)	(1,0)	(1,0)	(1,0)	(1,0)	(1,0)	(1,0)	
L1D -358>	(243,1)	(-1,1)	(-112,1)	(309,1)	(183,1)	(231,1)	(377,1)	(40,1)	(36,2)	(359,1)	(-32,1)	(431,1)	(18,1)	(202,1)	(346,1)	(405,1)	
L1D -357>	(-1,23)	(126,1)	(358,1)	(40,1)	(1,0)	(1,0)	(1,0)	(1,0)	(1,0)	(1,0)	(1,0)	(1,0)	(1,0)	(1,0)	(1,0)	(1,0)	
L1D -356>	(1,4)	(209,1)	(296,1)	(-106,1)	(98,1)	(293,1)	(44,1)	(200,1)	(78,1)	(-24,1)	(303,1)	(272,1)	(285,1)	(283,1)	(118,1)	(453,1)	
L1D -355>	(338,1)	(-1,22)	(1,1)	(210,1)	(303,1)	(477,1)	(1,0)	(1,0)	(1,0)	(1,0)	(1,0)	(1,0)	(1,0)	(1,0)	(1,0)	(1,0)	
L1D -354>	(1,4)	(366,1)	(355,1)	(17,1)	(218,1)	(437,1)	(90,1)	(272,1)	(295,1)	(100,1)	(299,1)	(200,1)	(296,1)	(238,1)	(-40,1)	(-10,1)	
L1D -353>	(-1,9)	(243,1)	(-45,1)	(2,1)	(354,1)	(174,1)	(88,1)	(272,1)	(412,1)	(297,1)	(1,0)	(1,0)	(1,0)	(1,0)	(1,0)	(1,0)	
L1D -352>	(-24,1)	(38,2)	(263,1)	(237,1)	(261,2)	(226,1)	(199,1)	(2,1)	(264,1)	(30,1)	(-32,2)	(26,2)	(443,1)	(118,1)	(80,1)	(168,1)	
L1D -351>	(-1,21)	(1,1)	(192,1)	(361,1)	(-102,1)	(455,1)	(-72,1)	(-44,1)	(199,1)	(1,0)	(1,0)	(1,0)	(1,0)	(1,0)	(1,0)	(1,0)	
L1D -350>	(90,1)	(193,1)	(181,1)	(285,2)	(38,1)	(312,1)	(28,1)	(303,1)	(351,1)	(421,1)	(-70,1)	(345,2)	(10,1)	(1,2)	(249,1)	(58,1)	
L1D -349>	(1,2)	(-1,20)	(477,1)	(120,1)	(429,1)	(1,0)	(1,0)	(1,0)	(1,0)	(1,0)	(1,0)	(1,0)	(1,0)	(1,0)	(1,0)	(1,0)	
L1D -348>	(350,1)	(375,1)	(388,1)	(407,1)	(204,1)	(-110,1)	(327,1)	(8,1)	(240,1)	(295,1)	(277,1)	(291,1)	(126,1)	(19,1)	(214,1)	(142,2)	
L1D -347>	(-1,22)	(1,1)	(106,1)	(348,1)	(283,1)	(346,1)	(6,1)	(-18,1)	(141,1)	(370,1)	(-10,1)	(203,1)	(1,0)	(1,0)	(1,0)	(1,0)	
L1D -346>	(1,3)	(439,1)	(11,1)	(259,1)	(2,2)	(-30,1)	(129,1)	(292,1)	(-46,1)	(368,1)	(-1,3)	(325,1)	(291,1)	(169,2)	(237,1)	(317,1)	
L1D -345>	(1,4)	(-1,22)	(223,1)	(254,1)	(344,1)	(1,0)	(1,0)	(1,0)	(1,0)	(1,0)	(1,0)	(1,0)	(1,0)	(1,0)	(1,0)	(1,0)	
L1D -344>	(334,1)	(290,1)	(-142,1)	(407,1)	(-44,1)	(40,1)	(283,1)	(-40,2)	(160,1)	(-34,1)	(205,1)	(352,1)	(306,1)	(-154,1)	(378,1)	(-30,1)	
L1D -343>	(1,1)	(-1,20)	(72,1)	(-88,1)	(90,1)	(69,1)	(311,1)	(1,0)	(1,0)	(1,0)	(1,0)	(1,0)	(1,0)	(1,0)	(1,0)	(1,0)	
L1D -342>	(62,1)	(2,1)	(166,1)	(281,1)	(266,2)	(412,1)	(342,1)	(299,1)	(1,1)	(66,2)	(427,1)	(379,1)	(241,1)	(367,2)	(24,1)	(229,1)	
L1D -341>	(-1,19)	(32,1)	(-58,1)	(60,1)	(202,1)	(255,1)	(156,1)	(195,1)	(1,0)	(1,0)	(1,0)	(1,0)	(1,0)	(1,0)	(1,0)	(1,0)	
L1D -340>	(1,3)	(-36,1)	(370,1)	(199,1)	(169,1)	(255,1)	(2,1)	(-8,1)	(204,1)	(-46,1)	(125,1)	(346,1)	(208,1)	(353,2)	(-110,1)	(-22,1)	
L1D -339>	(-1,13)	(1,3)	(311,1)	(267,1)	(414,1)	(436,1)	(1,0)	(1,0)	(1,0)	(1,0)	(1,0)	(1,0)	(1,0)	(1,0)	(1,0)	(1,0)	
L1D -338>	(381,1)	(1,7)	(241,1)	(154,1)	(269,1)	(6,2)	(416,1)	(222,2)	(-1,2)	(353,1)	(30,2)	(176,1)	(351,1)	(240,1)	(22,1)	(282,1)	
L1D -337>	(-1,24)	(1,2)	(2,1)	(248,1)	(387,1)	(338,1)	(390,1)	(1,0)	(1,0)	(1,0)	(1,0)	(1,0)	(1,0)	(1,0)	(1,0)	(1,0)	
L1D -336>	(-38,2)	(-28,1)	(1,5)	(328,1)	(243,1)	(343,1)	(84,1)	(202,1)	(216,2)	(289,2)	(96,1)	(348,1)	(360,1)	(44,1)	(381,1)	(440,1)	
L1D -335>	(-1,18)	(126,1)	(418,1)	(1,0)	(1,0)	(1,0)	(1,0)	(1,0)	(1,0)	(1,0)	(1,0)	(1,0)	(1,0)	(1,0)	(1,0)	(1,0)	
L1D -334>	(1,6)	(19,2)	(180,1)	(201,2)	(435,1)	(66,1)	(434,1)	(508,1)	(80,2)	(251,1)	(114,1)	(395,1)	(336,1)	(-1,1)	(-114,1)	(-56,1)	
L1D -333>	(1,3)	(-1,18)	(441,1)	(282,1)	(263,1)	(231,1)	(49,1)	(303,1)	(1,0)	(1,0)	(1,0)	(1,0)	(1,0)	(1,0)	(1,0)	(1,0)	
L1D -332>	(1,4)	(2,2)	(383,1)	(34,1)	(154,1)	(152,1)	(353,1)	(3,2)	(218,1)	(182,1)	(418,1)	(230,1)	(308,1)	(-62,2)	(210,2)	(280,1)	
L1D -331>	(-1,24)	(1,2)	(393,1)	(332,1)	(225,1)	(1,0)	(1,0)	(1,0)	(1,0)	(1,0)	(1,0)	(1,0)	(1,0)	(1,0)	(1,0)	(1,0)	
L1D -330>	(1,13)	(130,1)	(383,2)	(-35,1)	(237,1)	(180,1)	(402,1)	(373,1)	(296,1)	(18,1)	(347,1)	(328,1)	(192,1)	(144,1)	(28,1)	(-68,1)	
L1D -329>	(-1,17)	(452,1)	(3,1)	(112,1)	(44,1)	(10,1)	(256,1)	(163,1)	(19,2)	(1,0)	(1,0)	(1,0)	(1,0)	(1,0)	(1,0)	(1,0)	
L1D -328>	(352,1)	(1,3)	(229,1)	(195,1)	(142,1)	(32,1)	(-1,2)	(279,1)	(162,1)	(269,1)	(-30,1)	(360,1)	(370,1)	(300,1)	(12,1)	(347,1)	
L1D -327>	(-1,29)	(1,6)	(138,1)	(125,1)	(326,1)	(-44,1)	(1,0)	(1,0)	(1,0)	(1,0)	(1,0)	(1,0)	(1,0)	(1,0)	(1,0)	(1,0)	
L1D -326>	(271,2)	(1,9)	(94,1)	(-1,1)	(299,1)	(227,1)	(327,1)	(341,1)	(118,1)	(99,1)	(325,1)	(415,1)	(246,1)	(154,2)	(-116,1)	(226,1)	
L1D -325>	(1,3)	(384,1)	(-1,23)	(92,1)	(305,1)	(3,2)	(505,1)	(24,1)	(1,0)	(1,0)	(1,0)	(1,0)	(1,0)	(1,0)	(1,0)	(1,0)	
L1D -324>	(198,1)	(356,2)	(214,1)	(114,1)	(-74,1)	(259,1)	(147,1)	(253,1)	(72,1)	(204,1)	(26,1)	(132,1)	(94,1)	(62,1)	(250,1)	(419,1)	
L1D -323>	(298,1)	(-1,20)	(257,1)	(322,3)	(297,1)	(333,1)	(1,0)	(1,0)	(1,0)	(1,0)	(1,0)	(1,0)	(1,0)	(1,0)	(1,0)	(1,0)	
L1D -322>	(1,4)	(249,1)	(74,1)	(-1,3)	(291,1)	(208,1)	(0,1)	(-60,1)	(-116,1)	(-144,1)	(2,1)	(317,1)	(298,1)	(-4,1)	(56,1)	(299,1)	
L1D -321>	(-1,19)	(1,5)	(381,1)	(245,1)	(395,1)	(425,1)	(82,1)	(197,1)	(322,1)	(2,3)	(277,1)	(98,1)	(226,1)	(1,0)	(1,0)	(1,0)	
L1D -320>	(260,1)	(1,8)	(-4,1)	(-1,1)	(-42,1)	(174,1)	(66,2)	(-128,1)	(423,1)	(299,1)	(413,1)	(-38,1)	(186,1)	(98,1)	(145,1)	(202,1)	
L1D -319>	(320,1)	(-1,17)	(155,1)	(-106,1)	(1,0)	(1,0)	(1,0)	(1,0)	(1,0)	(1,0)	(1,0)	(1,0)	(1,0)	(1,0)	(1,0)	(1,0)	
L1D -318>	(310,1)	(1,8)	(-1,2)	(-10,1)	(268,1)	(46,1)	(246,1)	(-114,1)	(32,1)	(180,1)	(76,1)	(158,1)	(247,1)	(478,1)	(94,1)	(188,1)	
L1D -317>	(-1,20)	(1,4)	(318,1)	(319,1)	(139,1)	(1,0)	(1,0)	(1,0)	(1,0)	(1,0)	(1,0)	(1,0)	(1,0)	(1,0)	(1,0)	(1,0)	
L1D -316>	(1,4)	(307,1)	(36,1)	(-150,1)	(-94,1)	(132,1)	(-22,2)	(280,1)	(373,1)	(-26,1)	(312,1)	(-40,1)	(362,1)	(-160,1)	(116,1)	(156,1)	
L1D -315>	(-1,25)	(231,1)	(1,2)	(378,1)	(165,1)	(334,1)	(316,1)	(204,1)	(166,1)	(314,1)	(1,0)	(1,0)	(1,0)	(1,0)	(1,0)	(1,0)	
L1D -314>	(1,3)	(228,1)	(-46,1)	(116,1)	(-52,1)	(229,1)	(134,1)	(46,1)	(16,1)	(211,1)	(315,1)	(90,1)	(4,1)	(154,1)	(122,1)	(-40,1)	
L1D -313>	(-1,29)	(1,8)	(235,1)	(312,1)	(0,1)	(228,1)	(240,1)	(1,0)	(1,0)	(1,0)	(1,0)	(1,0)	(1,0)	(1,0)	(1,0)	(1,0)	
L1D -312>	(441,1)	(-91,1)	(-1,1)	(257,1)	(36,1)	(122,1)	(283,1)	(-48,1)	(346,1)	(112,1)	(319,1)	(209,1)	(214,1)	(263,1)	(211,1)	(106,1)	
L1D -311>	(-1,29)	(1,1)	(356,1)	(212,1)	(308,1)	(1,0)	(1,0)	(1,0)	(1,0)	(1,0)	(1,0)	(1,0)	(1,0)	(1,0)	(1,0)	(1,0)	
L1D -310>	(1,9)	(279,1)	(3,2)	(-70,1)	(361,1)	(10,1)	(280,1)	(142,1)	(393,1)	(319,1)	(405,1)	(283,1)	(-2,2)	(198,1)	(242,1)	(183,1)	
L1D -309>	(1,2)	(-1,25)	(308,1)	(152,1)	(-116,1)	(45,1)	(-18,1)	(12,1)	(1,0)	(1,0)	(1,0)	(1,0)	(1,0)	(1,0)	(1,0)	(1,0)	
L1D -308>	(1,11)	(352,1)	(377,1)	(206,3)	(-66,1)	(78,1)	(223,1)	(-172,1)	(395,1)	(2,1)	(-138,1)	(171,1)	(250,1)	(254,1)	(26,1)	(245,1)	
L1D -307>	(-1,24)	(1,9)	(-70,1)	(479,1)	(28,1)	(26,1)	(70,1)	(1,0)	(1,0)	(1,0)	(1,0)	(1,0)	(1,0)	(1,0)	(1,0)	(1,0)	
L1D -306>	(1,8)	(-170,1)	(423,1)	(0,1)	(419,1)	(443,1)	(208,1)	(255,1)	(-128,1)	(96,1)	(56,1)	(323,1)	(196,2)	(349,1)	(-130,1)	(381,1)	
L1D -305>	(-1,34)	(330,1)	(1,5)	(60,1)	(355,1)	(116,1)	(1,0)	(1,0)	(1,0)	(1,0)	(1,0)	(1,0)	(1,0)	(1,0)	(1,0)	(1,0)	
L1D -304>	(255,1)	(397,1)	(1,11)	(-124,1)	(379,1)	(26,1)	(360,1)	(8,1)	(-28,1)	(164,1)	(98,1)	(258,1)	(280,1)	(419,1)	(20,1)	(182,1)	
L1D -303>	(-1,31)	(1,5)	(2,3)	(194,1)	(-30,1)	(1,0)	(1,0)	(1,0)	(1,0)	(1,0)	(1,0)	(1,0)	(1,0)	(1,0)	(1,0)	(1,0)	
L1D -302>	(1,4)	(70,1)	(-1,2)	(254,1)	(26,1)	(-50,1)	(2,1)	(335,1)	(249,1)	(411,1)	(220,1)	(98,1)	(16,1)	(168,1)	(-92,1)	(273,1)	
L1D -301>	(1,6)	(404,1)	(-1,14)	(136,1)	(-40,1)	(411,1)	(403,1)	(-98,1)	(375,1)	(9,1)	(181,1)	(1,0)	(1,0)	(1,0)	(1,0)	(1,0)	
L1D -300>	(1,6)	(233,1)	(313,1)	(267,1)	(20,1)	(10,1)	(146,2)	(418,1)	(244,1)	(194,1)	(331,2)	(-12,1)	(56,1)	(325,1)	(80,1)	(192,1)	
L1D -299>	(1,2)	(-1,21)	(-27,1)	(1,0)	(1,0)	(1,0)	(1,0)	(1,0)	(1,0)	(1,0)	(1,0)	(1,0)	(1,0)	(1,0)	(1,0)	(1,0)	
L1D -298>	(125,1)	(305,1)	(1,5)	(174,2)	(62,1)	(232,1)	(-78,1)	(382,1)	(313,1)	(422,1)	(330,1)	(355,1)	(373,1)	(-156,1)	(52,1)	(256,1)	
L1D -297>	(-1,31)	(10,1)	(247,1)	(284,1)	(140,1)	(1,1)	(231,1)	(298,1)	(255,1)	(152,1)	(233,1)	(275,1)	(20,1)	(2,1)	(1,0)	(1,0)	
L1D -296>	(1,3)	(298,1)	(248,1)	(84,1)	(30,1)	(144,1)	(40,1)	(154,3)	(281,1)	(-156,1)	(-10,2)	(118,2)	(86,1)	(-140,1)	(362,1)	(246,1)	
L1D -295>	(-1,29)	(203,1)	(95,1)	(8,1)	(367,1)	(273,1)	(172,1)	(-16,1)	(6,1)	(4,2)	(2,1)	(294,1)	(412,1)	(1,0)	(1,0)	(1,0)	
L1D -294>	(1,8)	(193,1)	(137,1)	(21,1)	(144,1)	(88,1)	(151,1)	(152,2)	(485,1)	(90,1)	(-126,1)	(297,1)	(346,1)	(224,1)	(-164,1)	(262,1)	
L1D -293>	(-1,27)	(4,2)	(1,3)	(289,1)	(399,1)	(317,1)	(134,1)	(3,2)	(2,1)	(1,0)	(1,0)	(1,0)	(1,0)	(1,0)	(1,0)	(1,0)	
L1D -292>	(0,9)	(269,1)	(3,1)	(-1,2)	(208,1)	(205,2)	(209,1)	(252,2)	(-86,1)	(227,1)	(50,1)	(2,2)	(146,1)	(-47,1)	(298,1)	(64,1)	
L1D -291>	(-1,34)	(1,3)	(208,1)	(44,1)	(-144,1)	(394,1)	(277,1)	(0,8)	(210,1)	(98,1)	(266,1)	(329,1)	(353,1)	(389,1)	(-65,1)	(1,0)	
L1D -290>	(295,1)	(1,5)	(417,1)	(329,1)	(195,1)	(249,1)	(382,1)	(289,1)	(-24,1)	(291,3)	(280,1)	(214,1)	(211,1)	(148,1)	(-70,1)	(363,1)	
L1D -289>	(-1,37)	(1,2)	(29,1)	(349,1)	(4,1)	(14,1)	(2,3)	(215,1)	(290,1)	(102,1)	(201,1)	(1,0)	(1,0)	(1,0)	(1,0)	(1,0)	
L1D -288>	(280,1)	(-183,2)	(405,1)	(258,1)	(-1,3)	(267,1)	(283,1)	(302,1)	(142,1)	(-6,1)	(64,1)	(0,2)	(124,1)	(-54,1)	(110,1)	(40,1)	
L1D -287>	(1,2)	(5,1)	(-1,40)	(288,1)	(121,1)	(174,1)	(42,1)	(455,1)	(3,1)	(127,1)	(34,1)	(158,1)	(338,1)	(1,0)	(1,0)	(1,0)	
L1D -286>	(1,2)	(43,1)	(-64,1)	(-146,1)	(375,1)	(100,1)	(234,1)	(158,1)	(337,1)	(188,1)	(52,1)	(249,1)	(-124,1)	(-108,1)	(323,1)	(-24,1)	
L1D -285>	(-1,25)	(0,4)	(379,1)	(390,1)	(4,1)	(-54,1)	(-50,1)	(191,1)	(1,0)	(1,0)	(1,0)	(1,0)	(1,0)	(1,0)	(1,0)	(1,0)	
L1D -284>	(1,7)	(393,1)	(94,1)	(262,1)	(26,1)	(344,1)	(-98,1)	(254,1)	(214,1)	(-10,1)	(331,1)	(291,1)	(8,1)	(321,1)	(320,1)	(-38,1)	
L1D -283>	(-1,30)	(335,1)	(463,1)	(14,1)	(0,2)	(10,1)	(316,1)	(323,1)	(18,1)	(207,1)	(239,1)	(1,0)	(1,0)	(1,0)	(1,0)	(1,0)	
L1D -282>	(-1,3)	(0,4)	(356,1)	(70,1)	(287,1)	(495,1)	(227,1)	(-76,1)	(376,1)	(247,1)	(-20,2)	(284,1)	(-128,1)	(385,1)	(220,1)	(317,1)	
L1D -281>	(318,1)	(1,2)	(-1,28)	(226,1)	(218,1)	(172,1)	(203,1)	(272,1)	(0,1)	(26,1)	(128,1)	(48,1)	(64,1)	(136,1)	(1,0)	(1,0)	
L1D -280>	(1,7)	(2,7)	(171,1)	(245,2)	(232,1)	(204,1)	(58,1)	(399,1)	(-12,1)	(352,1)	(132,1)	(116,1)	(281,2)	(-44,1)	(195,2)	(-62,1)	
L1D -279>	(-1,34)	(1,2)	(114,1)	(-9,1)	(278,1)	(276,1)	(333,1)	(1,0)	(1,0)	(1,0)	(1,0)	(1,0)	(1,0)	(1,0)	(1,0)	(1,0)	
L1D -278>	(1,5)	(-50,1)	(159,1)	(120,1)	(82,1)	(-18,1)	(72,1)	(16,1)	(62,1)	(180,1)	(108,1)	(64,1)	(112,1)	(12,1)	(229,1)	(6,1)	
L1D -277>	(-1,28)	(278,1)	(52,1)	(317,1)	(190,1)	(292,1)	(-68,2)	(-95,1)	(24,1)	(124,1)	(406,1)	(155,1)	(1,0)	(1,0)	(1,0)	(1,0)	
L1D -276>	(98,2)	(-40,1)	(223,1)	(120,1)	(391,1)	(296,1)	(329,1)	(160,1)	(269,1)	(287,1)	(56,1)	(131,1)	(-8,1)	(-20,1)	(393,1)	(242,1)	
L1D -275>	(1,1)	(-1,22)	(66,1)	(373,1)	(-14,1)	(-174,1)	(74,1)	(1,0)	(1,0)	(1,0)	(1,0)	(1,0)	(1,0)	(1,0)	(1,0)	(1,0)	
L1D -274>	(1,6)	(-1,2)	(233,1)	(127,1)	(156,1)	(201,2)	(235,1)	(53,1)	(292,1)	(285,1)	(308,1)	(179,1)	(202,1)	(106,1)	(142,1)	(309,1)	
L1D -273>	(-1,27)	(1,1)	(-28,1)	(176,1)	(240,1)	(1,0)	(1,0)	(1,0)	(1,0)	(1,0)	(1,0)	(1,0)	(1,0)	(1,0)	(1,0)	(1,0)	
L1D -272>	(202,1)	(-1,3)	(297,1)	(153,1)	(188,1)	(176,2)	(32,1)	(161,1)	(279,1)	(58,1)	(118,1)	(-80,1)	(261,1)	(307,1)	(362,1)	(265,1)	
L1D -271>	(228,1)	(-1,29)	(301,1)	(341,1)	(345,1)	(1,0)	(1,0)	(1,0)	(1,0)	(1,0)	(1,0)	(1,0)	(1,0)	(1,0)	(1,0)	(1,0)	
L1D -270>	(1,4)	(148,1)	(-98,1)	(86,1)	(98,1)	(0,1)	(6,1)	(-1,4)	(177,1)	(157,1)	(-194,1)	(363,2)	(285,1)	(191,1)	(444,1)	(201,1)	
L1D -269>	(1,3)	(-1,35)	(453,1)	(135,1)	(4,1)	(355,1)	(126,1)	(270,1)	(1,0)	(1,0)	(1,0)	(1,0)	(1,0)	(1,0)	(1,0)	(1,0)	
L1D -268>	(1,5)	(86,2)	(-28,1)	(-70,1)	(271,1)	(333,1)	(-124,1)	(231,1)	(342,1)	(456,1)	(292,1)	(175,1)	(82,1)	(307,1)	(245,1)	(463,1)	
L1D -267>	(1,1)	(-1,28)	(70,1)	(62,1)	(190,2)	(56,1)	(90,1)	(120,1)	(-113,1)	(1,0)	(1,0)	(1,0)	(1,0)	(1,0)	(1,0)	(1,0)	
L1D -266>	(1,5)	(254,1)	(242,1)	(313,2)	(146,1)	(325,1)	(2,1)	(-56,1)	(-22,1)	(-34,1)	(-2,1)	(-1,2)	(423,1)	(229,1)	(116,1)	(301,1)	
L1D -265>	(1,1)	(-1,30)	(288,1)	(155,1)	(1,0)	(1,0)	(1,0)	(1,0)	(1,0)	(1,0)	(1,0)	(1,0)	(1,0)	(1,0)	(1,0)	(1,0)	
L1D -264>	(1,9)	(-1,3)	(135,1)	(265,1)	(305,1)	(280,2)	(118,1)	(131,1)	(-34,1)	(291,1)	(210,1)	(358,1)	(295,1)	(158,1)	(208,1)	(62,1)	
L1D -263>	(-1,43)	(1,4)	(3,5)	(350,1)	(220,1)	(226,1)	(122,2)	(274,1)	(451,1)	(181,1)	(1,0)	(1,0)	(1,0)	(1,0)	(1,0)	(1,0)	
L1D -262>	(1,6)	(30,1)	(176,1)	(188,1)	(192,2)	(417,2)	(-210,1)	(76,1)	(479,1)	(-176,1)	(-8,1)	(-1,1)	(443,1)	(386,1)	(143,1)	(-70,1)	
L1D -261>	(-1,29)	(1,9)	(288,1)	(204,1)	(-90,1)	(3,2)	(-118,1)	(26,1)	(295,1)	(-10,1)	(-66,1)	(1,0)	(1,0)	(1,0)	(1,0)	(1,0)	
L1D -260>	(-1,5)	(-6,1)	(319,1)	(197,1)	(36,1)	(-68,1)	(-107,1)	(14,1)	(206,1)	(359,2)	(-38,1)	(90,1)	(-14,1)	(370,1)	(-12,1)	(149,1)	
L1D -259>	(1,4)	(-1,35)	(350,1)	(18,1)	(128,1)	(-40,1)	(155,1)	(2,2)	(1,0)	(1,0)	(1,0)	(1,0)	(1,0)	(1,0)	(1,0)	(1,0)	
L1D -258>	(-28,1)	(119,1)	(171,1)	(231,1)	(327,1)	(-120,1)	(112,2)	(261,1)	(-186,1)	(339,2)	(245,1)	(64,2)	(-94,1)	(-212,1)	(102,1)	(242,1)	
L1D -257>	(-1,38)	(250,1)	(86,1)	(332,1)	(220,1)	(262,1)	(413,1)	(197,1)	(277,1)	(1,0)	(1,0)	(1,0)	(1,0)	(1,0)	(1,0)	(1,0)	
L1D -256>	(173,1)	(1,3)	(150,1)	(4,1)	(-78,1)	(116,1)	(148,2)	(205,1)	(66,1)	(102,1)	(12,1)	(138,1)	(247,1)	(-16,1)	(197,1)	(232,1)	
L1D -255>	(418,1)	(1,2)	(-1,38)	(20,1)	(54,1)	(75,1)	(104,1)	(233,1)	(1,0)	(1,0)	(1,0)	(1,0)	(1,0)	(1,0)	(1,0)	(1,0)	
L1D -254>	(1,6)	(327,1)	(271,1)	(315,1)	(-1,1)	(60,1)	(247,1)	(457,1)	(225,1)	(391,2)	(-212,1)	(48,1)	(-19,1)	(47,1)	(299,1)	(136,1)	
L1D -253>	(-1,39)	(246,1)	(110,1)	(129,1)	(65,1)	(4,1)	(191,1)	(449,1)	(136,1)	(1,0)	(1,0)	(1,0)	(1,0)	(1,0)	(1,0)	(1,0)	
L1D -252>	(221,1)	(1,6)	(385,1)	(-182,1)	(225,1)	(-88,1)	(260,1)	(-106,1)	(292,1)	(140,1)	(28,1)	(375,1)	(192,1)	(60,1)	(62,1)	(-156,1)	
L1D -251>	(-1,31)	(1,5)	(192,1)	(147,1)	(194,1)	(443,1)	(330,1)	(217,1)	(273,1)	(-32,1)	(-72,1)	(1,0)	(1,0)	(1,0)	(1,0)	(1,0)	
L1D -250>	(52,2)	(1,5)	(245,1)	(277,1)	(223,1)	(268,1)	(259,1)	(390,1)	(108,2)	(114,1)	(126,1)	(282,1)	(400,1)	(192,2)	(-58,1)	(186,1)	
L1D -249>	(-1,31)	(1,2)	(438,1)	(-204,1)	(324,1)	(-68,1)	(112,1)	(62,1)	(1,0)	(1,0)	(1,0)	(1,0)	(1,0)	(1,0)	(1,0)	(1,0)	
L1D -248>	(4,2)	(352,1)	(1,9)	(249,2)	(3,7)	(321,1)	(-40,1)	(-1,3)	(35,1)	(138,2)	(198,2)	(36,1)	(457,1)	(254,1)	(503,1)	(-102,2)	
L1D -247>	(1,3)	(-1,36)	(222,1)	(248,1)	(188,1)	(132,1)	(246,1)	(2,2)	(-98,1)	(288,1)	(1,0)	(1,0)	(1,0)	(1,0)	(1,0)	(1,0)	
L1D -246>	(128,1)	(1,4)	(-185,1)	(238,1)	(439,1)	(361,1)	(237,1)	(399,2)	(-48,1)	(348,1)	(196,1)	(307,1)	(8,2)	(91,1)	(371,1)	(140,1)	
L1D -245>	(-1,39)	(1,5)	(-94,1)	(286,1)	(3,1)	(244,1)	(369,1)	(-130,1)	(221,1)	(2,1)	(375,1)	(1,0)	(1,0)	(1,0)	(1,0)	(1,0)	
L1D -244>	(109,1)	(1,6)	(322,1)	(118,1)	(279,1)	(-38,2)	(110,1)	(269,1)	(353,1)	(310,1)	(289,1)	(-12,1)	(-16,1)	(299,1)	(108,1)	(263,1)	
L1D -243>	(-1,37)	(1,3)	(232,1)	(335,1)	(216,1)	(357,1)	(242,1)	(18,1)	(1,0)	(1,0)	(1,0)	(1,0)	(1,0)	(1,0)	(1,0)	(1,0)	
L1D -242>	(277,2)	(-118,1)	(243,1)	(125,1)	(84,1)	(-1,5)	(-40,1)	(16,1)	(-142,2)	(1,2)	(-30,2)	(210,1)	(271,1)	(8,1)	(-154,1)	(151,3)	
L1D -241>	(-1,40)	(1,1)	(181,1)	(89,1)	(-182,1)	(242,1)	(-54,1)	(-64,1)	(325,1)	(2,3)	(-161,1)	(68,1)	(228,1)	(272,1)	(1,0)	(1,0)	
L1D -240>	(130,1)	(1,6)	(-10,1)	(66,1)	(124,2)	(-250,1)	(-102,1)	(187,1)	(90,1)	(197,1)	(8,1)	(-160,1)	(-154,1)	(-12,1)	(34,1)	(89,1)	
L1D -239>	(178,1)	(-1,28)	(1,2)	(3,4)	(355,1)	(259,1)	(69,1)	(305,1)	(242,1)	(377,1)	(-32,1)	(-58,1)	(196,1)	(132,1)	(1,0)	(1,0)	
L1D -238>	(1,6)	(-196,1)	(313,2)	(209,1)	(-132,1)	(110,1)	(183,2)	(106,1)	(66,1)	(-140,1)	(252,1)	(300,1)	(44,1)	(341,1)	(215,1)	(172,3)	
L1D -237>	(-1,23)	(1,2)	(108,1)	(162,1)	(1,0)	(1,0)	(1,0)	(1,0)	(1,0)	(1,0)	(1,0)	(1,0)	(1,0)	(1,0)	(1,0)	(1,0)	
L1D -236>	(3,5)	(1,4)	(54,1)	(-1,3)	(23,1)	(-42,1)	(270,1)	(331,1)	(161,1)	(90,1)	(406,1)	(-174,1)	(355,1)	(353,1)	(189,1)	(-86,1)	
L1D -235>	(-1,30)	(202,1)	(1,1)	(306,1)	(241,1)	(80,1)	(46,1)	(382,1)	(-76,1)	(-40,1)	(2,1)	(1,0)	(1,0)	(1,0)	(1,0)	(1,0)	
L1D -234>	(1,4)	(140,1)	(95,1)	(93,1)	(-84,1)	(30,1)	(251,2)	(284,1)	(32,1)	(4,1)	(333,1)	(-6,1)	(279,1)	(57,1)	(195,1)	(31,1)	
L1D -233>	(-1,32)	(69,1)	(13,1)	(202,1)	(-66,1)	(6,1)	(-148,1)	(1,0)	(1,0)	(1,0)	(1,0)	(1,0)	(1,0)	(1,0)	(1,0)	(1,0)	
L1D -232>	(-152,1)	(51,1)	(-1,4)	(112,1)	(194,1)	(181,1)	(60,2)	(116,1)	(397,1)	(66,1)	(152,1)	(100,1)	(233,2)	(140,1)	(-168,1)	(283,1)	
L1D -231>	(-1,46)	(1,1)	(70,1)	(208,1)	(21,1)	(-166,1)	(287,1)	(1,0)	(1,0)	(1,0)	(1,0)	(1,0)	(1,0)	(1,0)	(1,0)	(1,0)	
L1D -230>	(1,7)	(-1,2)	(217,1)	(-68,1)	(397,1)	(203,1)	(325,1)	(171,1)	(177,1)	(75,1)	(73,2)	(375,2)	(-2,1)	(243,2)	(214,1)	(-6,1)	
L1D -229>	(-1,54)	(-86,1)	(140,1)	(-56,1)	(18,1)	(256,1)	(403,1)	(230,1)	(28,1)	(-166,1)	(1,0)	(1,0)	(1,0)	(1,0)	(1,0)	(1,0)	
L1D -228>	(22,1)	(1,4)	(283,2)	(272,1)	(271,1)	(69,1)	(58,1)	(-126,1)	(-42,1)	(-152,1)	(308,1)	(26,1)	(53,1)	(6,1)	(77,1)	(-38,1)	
L1D -227>	(-1,39)	(346,1)	(94,1)	(247,1)	(226,1)	(329,1)	(-24,1)	(378,1)	(2,1)	(212,1)	(3,2)	(184,1)	(176,1)	(-52,1)	(61,1)	(-93,1)	
L1D -226>	(1,4)	(299,1)	(219,1)	(260,1)	(46,2)	(277,2)	(110,1)	(369,1)	(144,1)	(80,1)	(-132,1)	(20,1)	(339,1)	(-88,1)	(188,1)	(356,1)	
L1D -225>	(-1,30)	(1,2)	(303,1)	(368,1)	(-158,1)	(26,1)	(144,1)	(360,1)	(281,1)	(-204,1)	(1,0)	(1,0)	(1,0)	(1,0)	(1,0)	(1,0)	
L1D -224>	(1,7)	(-1,2)	(137,1)	(225,2)	(219,1)	(263,1)	(112,1)	(58,1)	(-30,1)	(442,1)	(-64,1)	(68,1)	(-226,1)	(164,1)	(301,1)	(200,1)	
L1D -223>	(1,3)	(-1,35)	(-80,1)	(126,1)	(77,1)	(-98,1)	(1,0)	(1,0)	(1,0)	(1,0)	(1,0)	(1,0)	(1,0)	(1,0)	(1,0)	(1,0)	
L1D -222>	(363,1)	(-1,3)	(335,1)	(203,1)	(252,1)	(283,1)	(39,1)	(-36,1)	(242,1)	(10,1)	(234,1)	(192,1)	(22,1)	(91,1)	(403,1)	(90,1)	
L1D -221>	(-1,43)	(298,1)	(1,1)	(220,1)	(98,1)	(230,1)	(249,1)	(241,1)	(1,0)	(1,0)	(1,0)	(1,0)	(1,0)	(1,0)	(1,0)	(1,0)	
L1D -220>	(63,1)	(1,6)	(196,1)	(334,1)	(-134,1)	(282,1)	(-1,3)	(321,1)	(130,1)	(197,1)	(159,1)	(18,2)	(374,1)	(108,1)	(-70,1)	(385,1)	
L1D -219>	(-1,49)	(1,2)	(291,1)	(205,1)	(12,1)	(284,1)	(220,1)	(-44,1)	(393,1)	(267,1)	(1,0)	(1,0)	(1,0)	(1,0)	(1,0)	(1,0)	
L1D -218>	(1,4)	(274,1)	(254,1)	(291,1)	(195,1)	(-56,1)	(-262,1)	(260,1)	(14,1)	(219,1)	(-124,1)	(102,1)	(234,1)	(51,1)	(-168,1)	(22,2)	
L1D -217>	(-1,39)	(1,1)	(208,1)	(158,1)	(276,1)	(130,1)	(56,1)	(97,1)	(1,0)	(1,0)	(1,0)	(1,0)	(1,0)	(1,0)	(1,0)	(1,0)	
L1D -216>	(307,1)	(-175,1)	(148,1)	(65,1)	(233,1)	(50,1)	(134,1)	(29,1)	(289,1)	(265,1)	(206,2)	(-1,2)	(348,1)	(244,1)	(1,3)	(62,1)	
L1D -215>	(-1,35)	(182,1)	(147,1)	(40,1)	(-32,1)	(249,1)	(85,1)	(-38,1)	(183,1)	(108,1)	(176,1)	(84,1)	(64,1)	(-46,1)	(1,0)	(1,0)	
L1D -214>	(-188,1)	(1,6)	(80,2)	(164,1)	(150,1)	(34,3)	(147,1)	(207,1)	(183,1)	(314,1)	(-1,3)	(64,1)	(226,1)	(163,1)	(133,1)	(-66,1)	
L1D -213>	(-1,56)	(130,1)	(-93,1)	(-24,1)	(233,1)	(-34,1)	(179,1)	(106,1)	(383,1)	(1,0)	(1,0)	(1,0)	(1,0)	(1,0)	(1,0)	(1,0)	
L1D -212>	(174,1)	(-1,3)	(15,1)	(238,1)	(-12,1)	(116,1)	(-188,1)	(-168,1)	(-86,1)	(181,1)	(241,1)	(314,1)	(391,1)	(449,2)	(292,1)	(-46,2)	
L1D -211>	(1,2)	(-1,39)	(-24,1)	(137,1)	(342,1)	(-218,1)	(1,0)	(1,0)	(1,0)	(1,0)	(1,0)	(1,0)	(1,0)	(1,0)	(1,0)	(1,0)	
L1D -210>	(1,10)	(200,1)	(85,1)	(-172,1)	(-52,1)	(156,1)	(74,1)	(193,1)	(92,1)	(-1,5)	(-184,1)	(159,1)	(234,1)	(279,1)	(257,1)	(5,1)	
L1D -209>	(-1,60)	(1,5)	(300,1)	(210,1)	(275,1)	(155,1)	(222,1)	(-43,1)	(307,1)	(-118,1)	(269,1)	(-134,1)	(1,0)	(1,0)	(1,0)	(1,0)	
L1D -208>	(1,7)	(-162,1)	(-185,1)	(-154,1)	(-114,2)	(-1,2)	(-6,1)	(-222,2)	(347,1)	(159,1)	(128,1)	(397,1)	(86,1)	(317,1)	(253,1)	(-280,1)	
L1D -207>	(-1,38)	(1,1)	(250,1)	(290,1)	(180,1)	(-40,1)	(1,0)	(1,0)	(1,0)	(1,0)	(1,0)	(1,0)	(1,0)	(1,0)	(1,0)	(1,0)	
L1D -206>	(1,7)	(-1,2)	(42,1)	(193,1)	(146,1)	(-220,1)	(286,1)	(18,2)	(-46,1)	(425,1)	(253,1)	(-122,1)	(219,1)	(-56,1)	(349,1)	(147,1)	
L1D -205>	(-1,39)	(206,2)	(1,2)	(34,1)	(60,1)	(354,1)	(-68,1)	(396,1)	(399,1)	(1,0)	(1,0)	(1,0)	(1,0)	(1,0)	(1,0)	(1,0)	
L1D -204>	(1,4)	(222,1)	(345,3)	(30,1)	(371,1)	(154,1)	(58,1)	(249,1)	(56,1)	(235,1)	(241,1)	(100,1)	(265,1)	(-24,1)	(291,1)	(205,1)	
L1D -203>	(-1,53)	(358,1)	(1,1)	(-41,1)	(126,1)	(-20,1)	(100,1)	(339,1)	(141,1)	(32,1)	(286,1)	(22,1)	(-198,1)	(-168,1)	(1,0)	(1,0)	
L1D -202>	(94,1)	(-59,1)	(-1,1)	(458,1)	(1,3)	(295,1)	(96,1)	(195,1)	(-30,1)	(249,1)	(-140,2)	(186,1)	(158,1)	(189,1)	(-22,2)	(-162,2)	
L1D -201>	(-1,55)	(1,5)	(143,1)	(184,1)	(281,1)	(-186,1)	(98,1)	(394,1)	(257,1)	(224,1)	(126,1)	(1,0)	(1,0)	(1,0)	(1,0)	(1,0)	
L1D -200>	(-1,4)	(1,7)	(50,1)	(365,1)	(162,1)	(-206,2)	(-36,1)	(157,1)	(32,1)	(54,1)	(174,1)	(120,2)	(293,1)	(152,1)	(299,1)	(68,1)	
L1D -199>	(1,6)	(-1,48)	(46,1)	(-102,2)	(164,1)	(76,1)	(278,1)	(97,1)	(162,1)	(203,1)	(87,1)	(-98,1)	(1,0)	(1,0)	(1,0)	(1,0)	
L1D -198>	(-64,1)	(-1,4)	(-123,1)	(-32,1)	(25,1)	(56,1)	(126,2)	(184,1)	(72,1)	(30,1)	(136,1)	(-153,1)	(193,1)	(70,2)	(141,1)	(247,1)	
L1D -197>	(-1,49)	(1,3)	(-180,1)	(186,1)	(418,1)	(158,1)	(251,1)	(20,1)	(191,1)	(78,1)	(275,1)	(46,1)	(1,0)	(1,0)	(1,0)	(1,0)	
L1D -196>	(50,1)	(-1,4)	(197,2)	(1,10)	(6,1)	(18,1)	(-62,1)	(287,1)	(-12,1)	(297,1)	(-158,1)	(339,1)	(-166,1)	(122,1)	(28,1)	(202,1)	
L1D -195>	(19,1)	(-1,43)	(1,3)	(-150,1)	(97,1)	(230,1)	(-148,1)	(270,1)	(318,1)	(118,1)	(-62,1)	(-12,1)	(1,0)	(1,0)	(1,0)	(1,0)	
L1D -194>	(129,1)	(181,1)	(1,5)	(61,1)	(-68,1)	(176,1)	(-18,1)	(220,1)	(-222,1)	(72,1)	(8,2)	(36,1)	(14,2)	(-232,1)	(-94,1)	(-168,1)	
L1D -193>	(-1,59)	(1,2)	(170,1)	(156,1)	(323,1)	(122,1)	(-110,1)	(315,1)	(147,1)	(1,0)	(1,0)	(1,0)	(1,0)	(1,0)	(1,0)	(1,0)	
L1D -192>	(-1,5)	(1,9)	(92,1)	(203,1)	(205,1)	(-142,1)	(-108,1)	(353,1)	(-190,1)	(311,1)	(30,1)	(278,1)	(276,1)	(211,1)	(108,1)	(-58,1)	
L1D -191>	(-1,59)	(1,1)	(142,1)	(90,1)	(250,1)	(144,1)	(242,1)	(323,1)	(54,1)	(1,0)	(1,0)	(1,0)	(1,0)	(1,0)	(1,0)	(1,0)	
L1D -190>	(1,10)	(48,1)	(0,1)	(279,1)	(146,1)	(233,1)	(124,1)	(134,1)	(70,1)	(-1,3)	(-70,2)	(371,1)	(-110,1)	(-2,1)	(50,1)	(240,1)	
L1D -189>	(-1,49)	(1,3)	(45,1)	(20,1)	(46,1)	(70,1)	(-72,1)	(160,1)	(32,1)	(1,0)	(1,0)	(1,0)	(1,0)	(1,0)	(1,0)	(1,0)	
L1D -188>	(-1,4)	(1,7)	(396,1)	(-6,2)	(133,1)	(259,3)	(-100,1)	(-128,1)	(333,1)	(188,1)	(74,3)	(-52,1)	(123,1)	(262,1)	(184,1)	(65,1)	
L1D -187>	(1,1)	(-1,58)	(230,1)	(6,1)	(114,1)	(-64,1)	(-42,1)	(-170,1)	(1,0)	(1,0)	(1,0)	(1,0)	(1,0)	(1,0)	(1,0)	(1,0)	
L1D -186>	(1,4)	(80,1)	(249,1)	(18,1)	(209,1)	(154,1)	(384,1)	(305,1)	(48,1)	(444,1)	(218,1)	(164,2)	(344,1)	(175,1)	(-54,1)	(-6,1)	
L1D -185>	(-1,57)	(1,4)	(216,1)	(468,1)	(88,1)	(164,1)	(3,1)	(156,1)	(50,1)	(104,1)	(6,1)	(144,1)	(-33,1)	(-80,1)	(62,1)	(1,0)	
L1D -184>	(1,4)	(185,3)	(-238,1)	(-1,5)	(121,1)	(-272,1)	(58,2)	(183,1)	(248,1)	(106,1)	(49,1)	(136,1)	(212,1)	(-52,1)	(186,1)	(59,1)	
L1D -183>	(-1,48)	(288,1)	(1,3)	(410,1)	(436,1)	(84,1)	(3,1)	(168,1)	(-12,1)	(-44,1)	(-172,1)	(289,1)	(112,1)	(217,1)	(1,0)	(1,0)	
L1D -182>	(243,2)	(-56,1)	(184,2)	(-30,2)	(263,1)	(88,1)	(396,1)	(303,1)	(-46,1)	(1,7)	(154,1)	(211,1)	(-72,1)	(92,1)	(26,1)	(134,2)	
L1D -181>	(-1,68)	(1,4)	(301,1)	(120,1)	(215,1)	(-160,1)	(180,1)	(0,1)	(162,1)	(322,1)	(-6,1)	(1,0)	(1,0)	(1,0)	(1,0)	(1,0)	
L1D -180>	(1,8)	(284,1)	(281,1)	(-116,1)	(395,1)	(179,1)	(416,1)	(-62,2)	(34,1)	(131,1)	(-150,1)	(234,1)	(113,1)	(-56,1)	(225,1)	(-134,2)	
L1D -179>	(1,4)	(-1,67)	(290,1)	(-36,1)	(10,1)	(-84,1)	(263,1)	(42,1)	(1,0)	(1,0)	(1,0)	(1,0)	(1,0)	(1,0)	(1,0)	(1,0)	
L1D -178>	(1,6)	(-38,1)	(6,2)	(124,1)	(127,1)	(113,1)	(460,1)	(48,1)	(56,1)	(-2,1)	(179,1)	(173,1)	(323,1)	(213,2)	(-118,1)	(55,1)	
L1D -177>	(-1,64)	(1,3)	(-152,1)	(85,1)	(212,1)	(15,1)	(-196,1)	(204,1)	(-94,1)	(-34,1)	(-44,1)	(176,1)	(1,0)	(1,0)	(1,0)	(1,0)	
L1D -176>	(150,1)	(1,6)	(-36,1)	(154,1)	(-52,1)	(300,1)	(75,1)	(241,1)	(198,1)	(120,1)	(66,1)	(10,2)	(177,2)	(367,1)	(279,1)	(24,1)	
L1D -175>	(-1,62)	(176,1)	(1,1)	(2,1)	(-60,1)	(158,1)	(50,1)	(181,1)	(270,1)	(454,1)	(1,0)	(1,0)	(1,0)	(1,0)	(1,0)	(1,0)	
L1D -174>	(-1,5)	(293,1)	(176,1)	(214,1)	(-90,1)	(-130,1)	(144,1)	(-88,1)	(297,1)	(-260,1)	(152,1)	(261,1)	(438,1)	(132,1)	(307,1)	(221,1)	
L1D -173>	(-15,1)	(1,6)	(-1,49)	(-38,1)	(-24,1)	(18,1)	(3,1)	(180,1)	(23,1)	(129,1)	(58,1)	(-55,1)	(72,1)	(-60,1)	(76,1)	(-195,1)	
L1D -172>	(1,6)	(-1,7)	(158,2)	(150,2)	(-202,1)	(226,1)	(178,1)	(30,1)	(116,1)	(354,1)	(372,1)	(172,1)	(169,1)	(329,1)	(328,1)	(351,1)	
L1D -171>	(-1,57)	(1,6)	(330,1)	(290,1)	(271,1)	(-217,1)	(225,1)	(174,1)	(3,1)	(-62,1)	(406,1)	(172,1)	(256,1)	(1,0)	(1,0)	(1,0)	
L1D -170>	(-1,1)	(1,4)	(168,2)	(-26,2)	(20,1)	(-232,1)	(277,1)	(228,1)	(210,1)	(4,1)	(446,1)	(146,2)	(467,1)	(-16,1)	(176,1)	(356,1)	
L1D -169>	(204,1)	(1,3)	(-1,53)	(-32,1)	(68,1)	(110,1)	(-8,1)	(-88,1)	(-208,1)	(-261,1)	(57,1)	(-57,1)	(1,0)	(1,0)	(1,0)	(1,0)	
L1D -168>	(1,13)	(-1,4)	(262,3)	(122,2)	(168,2)	(32,1)	(106,1)	(90,1)	(194,1)	(505,1)	(-96,3)	(326,1)	(96,1)	(128,1)	(396,1)	(34,1)	
L1D -167>	(-1,47)	(1,13)	(165,1)	(80,1)	(-2,1)	(112,1)	(-176,1)	(-144,1)	(76,1)	(-174,1)	(156,1)	(-58,1)	(-100,1)	(50,1)	(9,1)	(169,1)	
L1D -166>	(-96,2)	(-1,6)	(1,7)	(165,3)	(72,1)	(166,2)	(167,1)	(73,1)	(297,2)	(143,1)	(158,1)	(328,1)	(211,1)	(-108,1)	(379,2)	(-104,1)	
L1D -165>	(1,6)	(-1,57)	(128,1)	(122,1)	(-163,1)	(-54,1)	(36,1)	(148,1)	(92,1)	(-114,1)	(236,1)	(150,1)	(1,0)	(1,0)	(1,0)	(1,0)	
L1D -164>	(1,7)	(-1,5)	(267,1)	(272,1)	(208,1)	(134,1)	(-12,2)	(102,1)	(-242,1)	(176,2)	(100,2)	(261,1)	(122,1)	(82,1)	(138,1)	(4,1)	
L1D -163>	(-1,60)	(1,4)	(104,1)	(-16,1)	(295,1)	(261,1)	(-78,1)	(208,1)	(3,2)	(-178,1)	(168,1)	(1,0)	(1,0)	(1,0)	(1,0)	(1,0)	
L1D -162>	(1,8)	(-66,1)	(345,1)	(-84,1)	(163,1)	(462,1)	(36,2)	(-1,2)	(242,1)	(206,1)	(62,1)	(92,1)	(186,1)	(363,1)	(-58,1)	(343,1)	
L1D -161>	(1,3)	(-1,49)	(210,1)	(150,1)	(32,1)	(3,2)	(290,1)	(146,1)	(53,1)	(165,1)	(42,1)	(1,0)	(1,0)	(1,0)	(1,0)	(1,0)	
L1D -160>	(1,6)	(-1,1)	(12,1)	(317,1)	(160,1)	(-102,2)	(58,1)	(4,2)	(198,1)	(-72,1)	(186,2)	(162,1)	(52,1)	(-58,1)	(334,1)	(-158,1)	
L1D -159>	(-1,50)	(1,3)	(72,1)	(-142,1)	(410,1)	(184,1)	(359,1)	(64,1)	(-112,1)	(-174,1)	(-40,1)	(1,0)	(1,0)	(1,0)	(1,0)	(1,0)	
L1D -158>	(-1,6)	(146,2)	(1,8)	(263,1)	(178,1)	(-248,1)	(293,1)	(-60,1)	(336,1)	(78,1)	(-78,1)	(212,2)	(40,1)	(307,1)	(202,2)	(68,1)	
L1D -157>	(-1,51)	(1,4)	(266,1)	(8,1)	(-67,1)	(142,1)	(55,1)	(-2,1)	(220,1)	(51,1)	(143,1)	(-42,1)	(1,0)	(1,0)	(1,0)	(1,0)	
L1D -156>	(1,7)	(-1,5)	(289,1)	(44,1)	(-290,1)	(96,1)	(38,1)	(265,1)	(-86,1)	(-126,1)	(-52,2)	(2,2)	(313,2)	(373,1)	(22,2)	(156,2)	
L1D -155>	(1,6)	(-1,59)	(-44,1)	(330,1)	(-88,1)	(56,1)	(108,1)	(-60,1)	(-174,1)	(67,1)	(1,0)	(1,0)	(1,0)	(1,0)	(1,0)	(1,0)	
L1D -154>	(1,5)	(-242,1)	(104,1)	(185,1)	(108,1)	(-30,1)	(106,1)	(144,1)	(176,1)	(-162,2)	(462,1)	(416,1)	(-102,1)	(434,1)	(275,1)	(-84,1)	
L1D -153>	(1,1)	(-1,62)	(124,1)	(-22,2)	(-34,1)	(-6,1)	(-117,1)	(-12,1)	(40,1)	(48,1)	(330,1)	(273,1)	(1,0)	(1,0)	(1,0)	(1,0)	
L1D -152>	(1,4)	(-1,2)	(20,1)	(-64,1)	(-190,1)	(72,1)	(-14,2)	(146,1)	(436,1)	(273,1)	(32,1)	(48,1)	(-33,1)	(174,1)	(408,1)	(192,1)	
L1D -151>	(-1,77)	(1,3)	(-50,1)	(118,1)	(40,1)	(4,1)	(108,1)	(-82,1)	(231,1)	(-113,1)	(-124,1)	(200,1)	(1,0)	(1,0)	(1,0)	(1,0)	
L1D -150>	(1,5)	(-182,2)	(-34,1)	(24,1)	(-108,1)	(-84,2)	(36,1)	(2,1)	(-1,3)	(313,2)	(-262,1)	(151,1)	(-30,1)	(22,1)	(116,1)	(186,1)	
L1D -149>	(1,6)	(-1,73)	(330,1)	(313,1)	(-124,1)	(106,1)	(3,2)	(4,1)	(436,1)	(256,1)	(155,1)	(1,0)	(1,0)	(1,0)	(1,0)	(1,0)	
L1D -148>	(1,10)	(24,1)	(422,1)	(123,2)	(6,1)	(86,1)	(185,1)	(204,1)	(134,1)	(186,1)	(-1,5)	(124,1)	(397,1)	(-32,1)	(65,1)	(112,1)	
L1D -147>	(-1,66)	(180,1)	(176,1)	(1,4)	(-102,1)	(65,1)	(174,1)	(169,1)	(162,1)	(275,1)	(-63,1)	(92,1)	(-242,1)	(40,1)	(2,1)	(-134,1)	
L1D -146>	(1,11)	(-1,9)	(408,2)	(18,1)	(-38,1)	(3,8)	(291,1)	(180,2)	(114,1)	(-20,1)	(130,1)	(344,1)	(42,2)	(28,1)	(79,1)	(66,1)	
L1D -145>	(-1,53)	(1,4)	(-248,1)	(-254,1)	(160,1)	(-120,1)	(-2,1)	(-56,1)	(-42,1)	(28,1)	(-88,1)	(-192,1)	(366,1)	(-70,1)	(64,1)	(1,0)	
L1D -144>	(1,9)	(24,2)	(70,2)	(26,1)	(46,2)	(126,1)	(136,2)	(150,2)	(74,1)	(-52,1)	(36,2)	(-112,2)	(-72,1)	(304,1)	(284,1)	(200,2)	
L1D -143>	(1,3)	(248,1)	(-1,64)	(250,1)	(-214,1)	(60,1)	(-24,1)	(-93,1)	(-2,1)	(-34,1)	(296,1)	(10,1)	(2,2)	(3,1)	(20,1)	(1,0)	
L1D -142>	(1,9)	(-74,1)	(-1,4)	(-130,1)	(70,1)	(-20,1)	(-162,1)	(396,1)	(48,2)	(-38,1)	(234,1)	(248,1)	(64,2)	(-50,2)	(99,1)	(241,1)	
L1D -141>	(-1,67)	(1,7)	(162,1)	(-4,1)	(59,1)	(-324,1)	(274,1)	(-9,1)	(-83,1)	(-28,1)	(222,1)	(-168,1)	(-222,1)	(4,1)	(10,1)	(1,0)	
L1D -140>	(1,12)	(-1,3)	(-60,1)	(279,1)	(-44,1)	(349,1)	(156,2)	(4,3)	(120,1)	(26,1)	(-64,1)	(263,1)	(379,1)	(189,1)	(-88,1)	(192,1)	
L1D -139>	(-1,69)	(1,7)	(17,1)	(114,1)	(173,1)	(-54,1)	(-122,1)	(-298,1)	(233,1)	(-260,1)	(146,1)	(40,1)	(204,1)	(408,1)	(-6,1)	(1,0)	
L1D -138>	(-1,1)	(1,12)	(368,1)	(144,1)	(138,1)	(209,1)	(-88,2)	(6,1)	(-82,2)	(-66,2)	(91,1)	(2,1)	(96,2)	(-160,1)	(134,1)	(294,1)	
L1D -137>	(-1,59)	(138,2)	(1,3)	(318,1)	(6,1)	(165,1)	(4,1)	(-8,1)	(195,1)	(-94,1)	(157,1)	(1,0)	(1,0)	(1,0)	(1,0)	(1,0)	
L1D -136>	(1,13)	(2,1)	(-1,3)	(275,2)	(108,1)	(202,1)	(267,1)	(-218,2)	(34,1)	(130,1)	(-8,1)	(-14,1)	(58,1)	(-20,1)	(54,2)	(-78,1)	
L1D -135>	(-1,51)	(1,3)	(159,1)	(-70,1)	(81,1)	(3,1)	(-123,1)	(21,1)	(-150,1)	(132,1)	(1,0)	(1,0)	(1,0)	(1,0)	(1,0)	(1,0)	
L1D -134>	(1,10)	(128,1)	(134,1)	(-1,4)	(-16,1)	(-18,1)	(135,1)	(-176,1)	(48,1)	(22,1)	(202,1)	(157,1)	(-244,1)	(66,1)	(-192,1)	(111,1)	
L1D -133>	(-1,60)	(1,10)	(226,1)	(410,1)	(-14,2)	(132,1)	(-2,1)	(-296,1)	(96,1)	(-218,1)	(340,1)	(276,1)	(76,1)	(262,1)	(1,0)	(1,0)	
L1D -132>	(1,12)	(84,2)	(147,1)	(142,1)	(115,1)	(96,1)	(276,1)	(-204,1)	(-88,2)	(74,1)	(331,1)	(-1,3)	(389,1)	(-30,1)	(175,1)	(-342,1)	
L1D -131>	(-1,70)	(88,1)	(1,8)	(-32,1)	(72,2)	(174,1)	(4,2)	(-120,1)	(-56,1)	(-90,1)	(132,4)	(93,1)	(128,1)	(131,1)	(1,0)	(1,0)	
L1D -130>	(1,9)	(-72,1)	(20,2)	(-74,1)	(74,2)	(220,3)	(96,1)	(148,1)	(118,1)	(108,2)	(82,1)	(289,1)	(-129,1)	(425,1)	(193,1)	(188,1)	
L1D -129>	(-1,81)	(107,1)	(190,1)	(-24,1)	(62,1)	(1,1)	(-116,1)	(2,1)	(169,1)	(144,1)	(-160,1)	(-178,1)	(26,1)	(1,0)	(1,0)	(1,0)	
L1D -128>	(1,5)	(280,1)	(-100,1)	(91,1)	(-106,1)	(174,1)	(51,1)	(90,1)	(-218,1)	(-166,1)	(288,1)	(233,1)	(-260,1)	(496,1)	(218,1)	(-122,1)	
L1D -127>	(1,5)	(-1,79)	(-69,1)	(247,1)	(-190,1)	(130,2)	(66,1)	(213,1)	(-226,1)	(434,1)	(19,1)	(-140,1)	(353,1)	(402,1)	(-28,1)	(2,1)	
L1D -126>	(-1,3)	(1,10)	(254,2)	(12,2)	(127,3)	(76,1)	(-84,1)	(126,3)	(309,1)	(54,2)	(92,1)	(177,1)	(220,1)	(-186,1)	(124,2)	(142,1)	
L1D -125>	(-1,67)	(1,7)	(171,1)	(-75,1)	(-242,1)	(-62,1)	(6,1)	(-72,1)	(1,0)	(1,0)	(1,0)	(1,0)	(1,0)	(1,0)	(1,0)	(1,0)	
L1D -124>	(1,13)	(137,1)	(-267,1)	(62,2)	(-177,1)	(197,1)	(239,1)	(114,1)	(310,2)	(-50,2)	(52,1)	(-10,1)	(139,1)	(56,1)	(168,1)	(175,1)	
L1D -123>	(1,2)	(-1,64)	(354,1)	(-168,1)	(-270,1)	(183,1)	(312,1)	(-150,1)	(1,0)	(1,0)	(1,0)	(1,0)	(1,0)	(1,0)	(1,0)	(1,0)	
L1D -122>	(1,11)	(-1,4)	(118,1)	(26,1)	(-38,1)	(-18,2)	(320,1)	(158,2)	(76,2)	(72,2)	(131,1)	(178,1)	(12,1)	(174,2)	(-128,1)	(-54,1)	
L1D -121>	(-1,63)	(-70,1)	(169,1)	(274,1)	(175,1)	(4,1)	(19,1)	(1,1)	(339,1)	(225,1)	(1,0)	(1,0)	(1,0)	(1,0)	(1,0)	(1,0)	
L1D -120>	(-1,5)	(1,8)	(122,1)	(-8,1)	(52,2)	(339,1)	(15,1)	(112,2)	(-70,1)	(38,2)	(121,1)	(128,1)	(192,1)	(-2,1)	(0,1)	(12,2)	
L1D -119>	(1,4)	(-1,67)	(-68,1)	(4,1)	(-16,1)	(316,1)	(-160,1)	(253,2)	(236,1)	(-2,1)	(374,1)	(-59,1)	(162,1)	(-156,1)	(1,0)	(1,0)	
L1D -118>	(76,1)	(66,1)	(-12,2)	(-60,2)	(0,2)	(56,1)	(-296,1)	(295,1)	(182,2)	(59,1)	(138,1)	(62,1)	(207,1)	(435,1)	(333,1)	(162,1)	
L1D -117>	(1,5)	(-1,86)	(184,1)	(52,1)	(-306,1)	(-86,1)	(167,1)	(-130,1)	(-24,1)	(-84,1)	(64,1)	(-170,1)	(256,1)	(-232,1)	(-4,1)	(0,1)	
L1D -116>	(1,12)	(37,1)	(324,1)	(-96,1)	(12,1)	(258,1)	(128,2)	(-46,1)	(-160,1)	(79,1)	(162,1)	(-298,1)	(72,1)	(114,1)	(216,1)	(257,1)	
L1D -115>	(-1,65)	(1,4)	(128,1)	(154,1)	(138,1)	(132,1)	(-4,1)	(31,1)	(340,1)	(-257,1)	(4,1)	(-97,1)	(141,1)	(1,0)	(1,0)	(1,0)	
L1D -114>	(1,9)	(-40,1)	(-1,6)	(209,1)	(44,1)	(-64,2)	(81,1)	(-50,3)	(255,1)	(14,1)	(399,1)	(58,1)	(74,1)	(-164,1)	(50,2)	(-96,1)	
L1D -113>	(-1,80)	(1,1)	(370,1)	(103,1)	(366,1)	(-78,1)	(-86,1)	(-89,1)	(203,1)	(158,1)	(346,1)	(237,1)	(183,1)	(97,1)	(1,0)	(1,0)	
L1D -112>	(1,10)	(204,1)	(179,1)	(109,2)	(54,1)	(4,3)	(-124,1)	(-32,1)	(257,1)	(-12,1)	(30,2)	(56,1)	(415,1)	(146,1)	(-22,1)	(10,1)	
L1D -111>	(-1,65)	(69,1)	(172,1)	(-76,1)	(1,3)	(78,1)	(401,1)	(162,1)	(-108,1)	(-34,1)	(68,1)	(53,1)	(34,1)	(108,1)	(100,1)	(109,1)	
L1D -110>	(195,1)	(-1,4)	(122,1)	(88,1)	(134,1)	(301,1)	(378,1)	(32,1)	(-112,1)	(-94,1)	(216,2)	(-176,1)	(-156,1)	(117,1)	(78,1)	(-220,1)	
L1D -109>	(1,11)	(-1,77)	(430,1)	(246,1)	(37,1)	(190,1)	(106,1)	(-46,1)	(60,1)	(254,1)	(65,1)	(89,1)	(1,0)	(1,0)	(1,0)	(1,0)	
L1D -108>	(1,11)	(-1,8)	(6,3)	(4,2)	(163,1)	(134,1)	(212,1)	(-98,1)	(178,2)	(-28,1)	(110,2)	(-90,1)	(86,1)	(390,1)	(354,1)	(207,1)	
L1D -107>	(1,3)	(-1,62)	(-104,1)	(92,1)	(118,1)	(-28,1)	(268,1)	(8,1)	(-178,1)	(-133,1)	(129,1)	(-105,1)	(354,1)	(42,1)	(-62,1)	(4,1)	
L1D -106>	(108,55)	(106,127)	(126,33)	(21,17)	(107,94)	(131,23)	(81,16)	(113,32)	(91,27)	(86,48)	(-14,1)	(104,30)	(99,21)	(111,31)	(93,7)	(112,54)	
L1D -105>	(420,1)	(-1,76)	(1,9)	(64,1)	(-94,1)	(313,1)	(118,1)	(79,1)	(-356,1)	(300,1)	(-66,1)	(152,1)	(-160,1)	(1,0)	(1,0)	(1,0)	
L1D -104>	(-256,1)	(18,1)	(140,1)	(1,3)	(-80,1)	(-52,1)	(95,1)	(-178,1)	(-248,1)	(28,1)	(-82,1)	(199,1)	(40,1)	(46,1)	(-196,1)	(70,2)	
L1D -103>	(-1,73)	(1,3)	(109,1)	(-43,1)	(139,1)	(190,1)	(197,1)	(-236,1)	(175,1)	(-104,1)	(9,1)	(1,0)	(1,0)	(1,0)	(1,0)	(1,0)	
L1D -102>	(-6,2)	(-1,5)	(1,13)	(-40,1)	(80,1)	(-32,2)	(109,1)	(30,1)	(132,1)	(190,2)	(-2,3)	(-24,1)	(-218,1)	(22,2)	(98,1)	(222,1)	
L1D -101>	(-1,78)	(1,4)	(318,1)	(152,1)	(147,1)	(109,1)	(262,1)	(-190,1)	(188,1)	(-204,1)	(-47,1)	(1,0)	(1,0)	(1,0)	(1,0)	(1,0)	
L1D -100>	(1,8)	(-1,7)	(99,6)	(102,2)	(119,1)	(289,1)	(26,1)	(56,2)	(25,1)	(58,3)	(22,1)	(152,1)	(142,1)	(64,1)	(-14,1)	(-26,1)	
L1D -99>	(-1,93)	(1,3)	(142,1)	(82,1)	(-164,1)	(-70,1)	(4,2)	(-59,1)	(302,1)	(-140,1)	(118,1)	(-117,1)	(-298,1)	(-13,1)	(426,1)	(87,1)	
L1D -98>	(358,1)	(1,9)	(0,2)	(336,1)	(52,1)	(2,4)	(166,1)	(240,2)	(-262,1)	(-98,1)	(56,2)	(-1,2)	(185,1)	(-276,1)	(188,1)	(-78,1)	
L1D -97>	(-1,72)	(1,1)	(2,2)	(98,1)	(-75,1)	(24,1)	(76,1)	(282,1)	(-83,1)	(1,0)	(1,0)	(1,0)	(1,0)	(1,0)	(1,0)	(1,0)	
L1D -96>	(-142,1)	(1,10)	(-1,6)	(98,2)	(241,1)	(28,2)	(159,1)	(36,1)	(447,1)	(310,1)	(2,2)	(311,1)	(54,1)	(-266,1)	(260,1)	(-28,3)	
L1D -95>	(-1,80)	(1,6)	(96,1)	(-168,1)	(0,1)	(120,1)	(66,1)	(52,1)	(-42,1)	(118,1)	(127,1)	(-2,1)	(132,4)	(95,1)	(1,0)	(1,0)	
L1D -94>	(1,12)	(93,2)	(-1,8)	(126,1)	(275,1)	(459,1)	(4,2)	(372,1)	(-194,1)	(166,1)	(68,3)	(44,2)	(-26,2)	(-158,1)	(150,2)	(-32,1)	
L1D -93>	(-1,83)	(94,2)	(1,7)	(-130,1)	(152,1)	(-360,1)	(0,1)	(81,1)	(23,1)	(-182,1)	(206,1)	(-76,1)	(90,1)	(1,0)	(1,0)	(1,0)	
L1D -92>	(1,10)	(93,3)	(-1,8)	(62,1)	(180,1)	(-2,3)	(335,1)	(361,1)	(82,1)	(344,1)	(72,2)	(-92,1)	(200,1)	(2,3)	(-90,1)	(110,1)	
L1D -91>	(-1,83)	(-354,1)	(92,5)	(1,7)	(310,1)	(236,1)	(0,4)	(-8,1)	(95,1)	(46,1)	(336,1)	(2,1)	(164,1)	(-64,1)	(-284,1)	(1,0)	
L1D -90>	(1,19)	(91,11)	(-1,7)	(136,3)	(0,3)	(164,1)	(255,1)	(78,2)	(152,1)	(-32,1)	(215,1)	(116,2)	(306,1)	(-16,2)	(445,1)	(204,1)	
L1D -89>	(-1,74)	(1,14)	(90,8)	(0,3)	(3,1)	(-178,1)	(102,1)	(94,1)	(91,1)	(-95,1)	(4,2)	(321,1)	(-105,1)	(152,1)	(166,1)	(-102,1)	
L1D -88>	(89,10)	(-1,3)	(14,1)	(1,23)	(-56,1)	(264,1)	(-14,1)	(396,1)	(108,2)	(-90,1)	(38,1)	(35,2)	(221,1)	(0,3)	(-106,2)	(70,1)	
L1D -87>	(1,6)	(-1,80)	(84,2)	(2,3)	(88,12)	(-108,1)	(0,4)	(115,2)	(142,1)	(89,1)	(-336,1)	(52,1)	(148,1)	(350,1)	(201,1)	(67,1)	
L1D -86>	(-1,4)	(1,13)	(87,14)	(84,6)	(0,1)	(118,1)	(322,1)	(78,2)	(126,1)	(-216,1)	(138,1)	(-10,1)	(464,1)	(-58,1)	(2,4)	(200,2)	
L1D -85>	(1,7)	(-1,73)	(2,3)	(84,7)	(3,3)	(83,3)	(86,16)	(94,1)	(85,1)	(298,1)	(174,1)	(68,1)	(78,2)	(0,2)	(34,1)	(-247,1)	
L1D -84>	(1,8)	(5,3)	(83,12)	(-1,2)	(102,1)	(-166,1)	(252,1)	(286,1)	(107,1)	(-40,1)	(390,1)	(-154,1)	(-82,1)	(325,1)	(158,1)	(85,16)	
L1D -83>	(1,5)	(-1,89)	(89,1)	(-290,1)	(206,1)	(-58,2)	(-4,1)	(453,1)	(84,22)	(-140,1)	(-236,1)	(56,2)	(82,2)	(216,1)	(-118,1)	(0,3)	
L1D -82>	(1,10)	(84,7)	(341,1)	(116,1)	(120,2)	(263,1)	(358,1)	(311,1)	(-72,1)	(-98,1)	(-1,10)	(14,1)	(56,3)	(22,2)	(72,1)	(-144,1)	
L1D -81>	(-1,97)	(1,2)	(84,3)	(82,17)	(-22,1)	(2,1)	(126,1)	(-224,1)	(-341,1)	(36,1)	(23,1)	(-96,1)	(-116,1)	(0,1)	(12,1)	(206,1)	
L1D -80>	(84,3)	(81,19)	(-1,7)	(1,8)	(128,2)	(-78,2)	(-24,2)	(82,2)	(-44,2)	(90,1)	(80,1)	(22,1)	(-56,1)	(96,2)	(-52,2)	(458,1)	
L1D -79>	(-1,79)	(250,1)	(86,1)	(80,20)	(272,1)	(312,2)	(1,4)	(14,1)	(124,1)	(84,1)	(374,1)	(0,5)	(26,1)	(82,1)	(-20,1)	(1,0)	
L1D -78>	(79,19)	(-1,9)	(108,1)	(-17,1)	(-416,1)	(-294,1)	(1,10)	(180,1)	(-162,1)	(21,2)	(-236,1)	(-44,1)	(-10,3)	(240,1)	(116,1)	(66,1)	
L1D -77>	(-1,80)	(1,8)	(78,19)	(87,1)	(-68,1)	(275,1)	(139,1)	(378,1)	(132,1)	(0,1)	(306,1)	(-362,1)	(1,0)	(1,0)	(1,0)	(1,0)	
L1D -76>	(77,21)	(1,9)	(4,1)	(190,1)	(-62,1)	(96,1)	(-224,1)	(79,1)	(32,2)	(100,1)	(97,1)	(113,2)	(22,1)	(133,2)	(152,1)	(-4,2)	
L1D -75>	(-1,80)	(1,7)	(76,22)	(88,1)	(4,1)	(79,1)	(-252,1)	(77,1)	(0,2)	(-86,1)	(226,1)	(126,1)	(-36,1)	(-204,1)	(-240,1)	(1,0)	
L1D -74>	(1,11)	(75,25)	(-1,7)	(24,2)	(8,9)	(64,2)	(344,1)	(-48,1)	(226,1)	(0,5)	(220,1)	(195,1)	(-16,1)	(84,1)	(-2,3)	(422,1)	
L1D -73>	(-1,86)	(74,29)	(1,5)	(-170,1)	(94,1)	(85,1)	(102,1)	(-40,1)	(-293,1)	(-298,1)	(198,1)	(226,1)	(1,0)	(1,0)	(1,0)	(1,0)	
L1D -72>	(73,30)	(-1,7)	(118,1)	(336,1)	(-22,2)	(52,2)	(-94,2)	(-224,1)	(-26,1)	(4,1)	(330,1)	(177,2)	(134,3)	(42,2)	(-130,1)	(407,1)	
L1D -71>	(-1,80)	(72,31)	(196,1)	(364,1)	(391,1)	(336,1)	(502,1)	(73,1)	(170,1)	(-8,1)	(39,1)	(253,1)	(-164,1)	(321,1)	(-196,1)	(-52,1)	
L1D -70>	(71,32)	(1,6)	(150,1)	(152,1)	(114,1)	(306,1)	(372,1)	(14,1)	(126,1)	(464,1)	(60,4)	(78,4)	(-112,1)	(-86,1)	(42,1)	(-174,1)	
L1D -69>	(1,7)	(-1,81)	(70,31)	(197,1)	(4,1)	(156,1)	(-347,1)	(122,1)	(0,1)	(-407,1)	(234,1)	(205,1)	(141,1)	(-46,1)	(422,1)	(107,1)	
L1D -68>	(69,32)	(109,2)	(174,1)	(32,2)	(-28,1)	(-151,1)	(60,3)	(1,10)	(354,1)	(-330,1)	(-69,1)	(427,1)	(24,2)	(8,1)	(68,1)	(219,1)	
L1D -67>	(-1,85)	(197,1)	(68,32)	(52,1)	(-356,1)	(10,1)	(138,1)	(-128,1)	(-2,1)	(46,1)	(354,1)	(152,1)	(-51,1)	(30,1)	(92,1)	(96,1)	
L1D -66>	(1,5)	(67,33)	(-1,9)	(183,1)	(262,1)	(470,1)	(-248,1)	(326,1)	(-2,2)	(152,1)	(-366,1)	(4,3)	(106,1)	(-80,1)	(-8,2)	(110,1)	
L1D -65>	(-1,101)	(66,32)	(218,1)	(1,2)	(-86,1)	(136,1)	(109,1)	(-80,1)	(216,1)	(-228,1)	(16,1)	(4,1)	(-100,1)	(-182,1)	(-268,1)	(-22,1)	
L1D -64>	(30,1)	(65,32)	(-274,1)	(-1,8)	(1,11)	(-4,1)	(46,2)	(4,22)	(156,1)	(337,1)	(2,1)	(5,1)	(184,2)	(64,1)	(282,1)	(-30,1)	
L1D -63>	(-1,98)	(64,32)	(1,2)	(105,1)	(356,1)	(-214,1)	(2,1)	(132,1)	(-227,1)	(118,1)	(-218,1)	(192,1)	(165,1)	(-90,1)	(-202,1)	(430,1)	
L1D -62>	(63,31)	(1,6)	(-1,6)	(31,3)	(342,1)	(-92,2)	(-26,1)	(-266,1)	(-60,1)	(50,1)	(229,1)	(194,1)	(-304,2)	(222,2)	(6,1)	(-52,2)	
L1D -61>	(1,4)	(-1,75)	(62,31)	(-355,1)	(92,1)	(-38,1)	(-90,1)	(-235,1)	(464,1)	(6,1)	(1,0)	(1,0)	(1,0)	(1,0)	(1,0)	(1,0)	
L1D -60>	(1,109)	(106,0)	(-64,0)	(-338,0)	(51,0)	(61,1)	(121,0)	(92,0)	(397,0)	(1,0)	(1,0)	(1,0)	(1,0)	(1,0)	(1,0)	(1,0)	
L1D -59>	(-1,89)	(60,31)	(1,9)	(216,1)	(3,1)	(-22,1)	(-362,1)	(278,1)	(-26,1)	(-158,1)	(-206,1)	(15,1)	(-3,1)	(-108,1)	(58,1)	(1,0)	
L1D -58>	(-1,6)	(59,33)	(374,1)	(263,1)	(98,1)	(-146,1)	(86,1)	(338,2)	(27,1)	(-289,1)	(152,1)	(-58,1)	(-264,1)	(92,2)	(212,1)	(1,6)	
L1D -57>	(1,5)	(-1,83)	(58,32)	(-370,1)	(352,1)	(76,1)	(-201,1)	(-283,1)	(4,1)	(16,1)	(162,1)	(-29,1)	(-66,1)	(-52,1)	(-84,1)	(-278,1)	
L1D -56>	(7,3)	(57,32)	(1,9)	(-70,2)	(30,2)	(166,1)	(-176,1)	(56,2)	(162,1)	(138,2)	(85,1)	(112,1)	(110,1)	(-42,2)	(142,1)	(46,3)	
L1D -55>	(-1,86)	(-4,1)	(1,4)	(56,32)	(76,1)	(2,1)	(-200,1)	(0,13)	(66,1)	(46,1)	(305,1)	(-232,1)	(-71,1)	(-246,1)	(17,1)	(1,0)	
L1D -54>	(1,9)	(55,32)	(158,1)	(-28,3)	(222,2)	(-106,2)	(442,1)	(78,2)	(-370,1)	(102,4)	(-42,1)	(423,1)	(-94,1)	(-324,1)	(-22,2)	(42,1)	
L1D -53>	(-1,77)	(54,32)	(1,5)	(42,1)	(-80,1)	(3,1)	(-44,1)	(100,1)	(96,1)	(-119,1)	(134,1)	(36,1)	(-232,1)	(-26,1)	(26,1)	(1,0)	
L1D -52>	(53,32)	(-1,10)	(147,1)	(-40,2)	(-16,2)	(319,1)	(70,1)	(-70,1)	(-212,1)	(52,2)	(-232,1)	(-102,1)	(286,1)	(18,1)	(-62,1)	(54,1)	
L1D -51>	(-1,71)	(1,7)	(52,32)	(350,1)	(-394,1)	(-64,1)	(133,1)	(7,1)	(4,1)	(-366,1)	(34,1)	(27,1)	(-297,1)	(-245,1)	(268,1)	(1,0)	
L1D -50>	(1,14)	(51,32)	(274,1)	(85,1)	(78,1)	(91,1)	(8,1)	(126,1)	(-50,2)	(144,1)	(-1,5)	(56,1)	(30,1)	(427,1)	(92,1)	(240,1)	
L1D -49>	(-1,94)	(50,31)	(1,5)	(89,1)	(-230,1)	(0,1)	(450,1)	(216,1)	(-72,1)	(80,1)	(260,1)	(-2,1)	(20,3)	(-47,1)	(48,1)	(132,1)	
L1D -48>	(1,13)	(102,1)	(8,46)	(49,31)	(-16,1)	(-396,1)	(134,1)	(104,2)	(-18,2)	(-218,1)	(188,1)	(284,1)	(20,1)	(110,1)	(124,1)	(-142,1)	
L1D -47>	(-1,96)	(1,4)	(48,32)	(-302,1)	(331,1)	(136,1)	(27,1)	(417,1)	(-165,1)	(26,1)	(45,1)	(399,1)	(-170,1)	(1,0)	(1,0)	(1,0)	
L1D -46>	(1,9)	(10,16)	(47,32)	(44,2)	(208,1)	(259,1)	(-30,1)	(34,1)	(78,1)	(-142,2)	(-162,1)	(204,1)	(62,2)	(-138,2)	(-186,1)	(-164,1)	
L1D -45>	(-1,91)	(1,16)	(46,32)	(-253,1)	(82,1)	(-311,1)	(113,1)	(-281,1)	(4,1)	(-190,1)	(-76,1)	(124,1)	(-126,1)	(103,1)	(-44,1)	(-68,1)	
L1D -44>	(43,32)	(45,32)	(1,9)	(-68,2)	(-1,2)	(2,1)	(-44,1)	(-138,1)	(423,1)	(-88,1)	(92,2)	(408,1)	(-22,1)	(156,1)	(494,1)	(66,2)	
L1D -43>	(-1,104)	(44,33)	(1,10)	(-130,1)	(-54,1)	(-261,1)	(161,1)	(-393,1)	(-340,1)	(108,1)	(284,1)	(94,1)	(134,1)	(100,1)	(42,1)	(45,1)	
L1D -42>	(118,2)	(1,12)	(43,36)	(9,3)	(114,1)	(-100,3)	(-10,1)	(-104,2)	(248,1)	(144,1)	(371,1)	(291,1)	(398,1)	(388,1)	(-96,1)	(-328,1)	
L1D -41>	(1,11)	(-1,112)	(42,32)	(41,1)	(-236,1)	(156,1)	(8,1)	(-8,1)	(-103,1)	(142,1)	(-257,1)	(212,1)	(22,1)	(-89,1)	(-160,1)	(1,0)	
L1D -40>	(25,78)	(27,78)	(41,0)	(378,0)	(-95,0)	(37,0)	(1,0)	(1,0)	(1,0)	(1,0)	(1,0)	(1,0)	(1,0)	(1,0)	(1,0)	(1,0)	
L1D -39>	(-1,82)	(1,4)	(8,12)	(40,31)	(117,2)	(28,2)	(2,1)	(-95,2)	(1,0)	(1,0)	(1,0)	(1,0)	(1,0)	(1,0)	(1,0)	(1,0)	
L1D -38>	(4,11)	(-1,5)	(1,13)	(10,3)	(39,32)	(220,1)	(-106,3)	(-84,2)	(-4,2)	(28,1)	(152,1)	(-18,2)	(146,1)	(18,2)	(-170,2)	(391,1)	
L1D -37>	(4,91)	(-50,1)	(-2,0)	(5,5)	(-3,0)	(-1,7)	(38,3)	(-113,0)	(-162,0)	(194,0)	(1,0)	(1,0)	(1,0)	(1,0)	(1,0)	(1,0)	
L1D -36>	(-1,7)	(37,32)	(1,9)	(273,1)	(-20,2)	(42,1)	(71,1)	(80,2)	(-18,2)	(-28,1)	(40,2)	(78,1)	(34,1)	(-276,1)	(28,1)	(141,1)	
L1D -35>	(-5,107)	(-1,88)	(2,79)	(36,29)	(62,1)	(374,1)	(-238,1)	(-3,1)	(52,1)	(1,5)	(3,1)	(-65,1)	(60,1)	(-204,1)	(0,1)	(-409,1)	
L1D -34>	(1,102)	(12,1)	(-124,0)	(-1,0)	(-30,0)	(35,0)	(1,0)	(1,0)	(1,0)	(1,0)	(1,0)	(1,0)	(1,0)	(1,0)	(1,0)	(1,0)	
L1D -33>	(1,125)	(-4,4)	(-1,0)	(14,0)	(34,0)	(1,0)	(1,0)	(1,0)	(1,0)	(1,0)	(1,0)	(1,0)	(1,0)	(1,0)	(1,0)	(1,0)	
L1D -32>	(1,31)	(-1,7)	(33,32)	(284,1)	(39,1)	(-17,1)	(-110,2)	(326,1)	(400,1)	(318,1)	(301,1)	(260,1)	(88,1)	(-216,1)	(-246,1)	(214,1)	
L1D -31>	(14,3)	(-292,0)	(-1,0)	(2,0)	(32,0)	(-82,0)	(8,75)	(30,0)	(1,0)	(1,0)	(1,0)	(1,0)	(1,0)	(1,0)	(1,0)	(1,0)	
L1D -30>	(2,71)	(9,3)	(1,14)	(-108,2)	(43,3)	(-1,9)	(31,31)	(-10,2)	(14,3)	(26,3)	(130,1)	(358,1)	(68,3)	(168,2)	(448,1)	(188,1)	
L1D -29>	(2,92)	(-8,8)	(-1,90)	(27,30)	(43,29)	(30,28)	(1,5)	(4,2)	(-96,1)	(0,4)	(-181,1)	(291,1)	(210,1)	(115,1)	(14,1)	(3,3)	
L1D -28>	(14,1)	(188,1)	(-394,1)	(29,5)	(2,14)	(272,0)	(11,69)	(311,0)	(0,1)	(-94,0)	(1,1)	(211,0)	(-71,0)	(78,0)	(-78,0)	(-30,0)	
L1D -27>	(28,0)	(29,0)	(-33,105)	(14,0)	(-37,11)	(-1,0)	(-35,0)	(34,0)	(1,1)	(1,0)	(1,0)	(1,0)	(1,0)	(1,0)	(1,0)	(1,0)	
L1D -26>	(-54,0)	(-1,32)	(-34,89)	(27,0)	(2,7)	(-36,0)	(239,0)	(284,0)	(356,0)	(1,0)	(1,0)	(1,0)	(1,0)	(1,0)	(1,0)	(1,0)	
L1D -25>	(40,106)	(26,0)	(13,6)	(7,3)	(0,0)	(-1,0)	(1,0)	(1,0)	(1,0)	(1,0)	(1,0)	(1,0)	(1,0)	(1,0)	(1,0)	(1,0)	
L1D -24>	(14,3)	(17,70)	(11,0)	(132,0)	(25,0)	(21,0)	(1,0)	(1,0)	(1,0)	(1,0)	(1,0)	(1,0)	(1,0)	(1,0)	(1,0)	(1,0)	
L1D -23>	(11,2)	(24,0)	(-1,0)	(10,0)	(22,0)	(1,0)	(2,104)	(5,6)	(21,0)	(1,0)	(1,0)	(1,0)	(1,0)	(1,0)	(1,0)	(1,0)	
L1D -22>	(-5,119)	(114,0)	(14,0)	(23,0)	(12,0)	(1,0)	(1,0)	(1,0)	(1,0)	(1,0)	(1,0)	(1,0)	(1,0)	(1,0)	(1,0)	(1,0)	
L1D -21>	(9,92)	(-1,102)	(22,31)	(106,2)	(10,29)	(1,2)	(-118,1)	(3,1)	(26,1)	(114,1)	(180,1)	(-106,1)	(-193,1)	(-168,1)	(5,1)	(-42,2)	
L1D -20>	(0,77)	(-12,0)	(-106,0)	(-84,0)	(100,0)	(1,0)	(1,0)	(1,0)	(1,0)	(1,0)	(1,0)	(1,0)	(1,0)	(1,0)	(1,0)	(1,0)	
L1D -19>	(28,85)	(35,6)	(-121,0)	(-1,0)	(1,0)	(20,0)	(0,1)	(1,0)	(1,0)	(1,0)	(1,0)	(1,0)	(1,0)	(1,0)	(1,0)	(1,0)	
L1D -18>	(-122,1)	(28,1)	(-10,7)	(11,120)	(8,15)	(-7,5)	(-1,4)	(-6,0)	(19,0)	(1,0)	(1,0)	(1,0)	(1,0)	(1,0)	(1,0)	(1,0)	
L1D -17>	(13,4)	(-14,0)	(14,68)	(-1,1)	(-6,19)	(-2,45)	(-252,0)	(35,1)	(4,1)	(8,0)	(7,0)	(18,0)	(-282,0)	(1,0)	(1,0)	(1,0)	
L1D -16>	(14,89)	(-64,0)	(-26,0)	(-3,1)	(-4,0)	(-29,0)	(2,0)	(17,0)	(1,0)	(1,0)	(1,0)	(1,0)	(1,0)	(1,0)	(1,0)	(1,0)	
L1D -15>	(-1,113)	(1,8)	(16,33)	(2,88)	(8,7)	(-7,86)	(-3,7)	(-106,2)	(3,4)	(57,1)	(60,1)	(4,1)	(5,1)	(293,1)	(0,2)	(-346,1)	
L1D -14>	(402,0)	(11,67)	(8,0)	(-48,0)	(218,0)	(-152,0)	(14,0)	(15,1)	(-54,0)	(-214,0)	(1,1)	(1,0)	(1,0)	(1,0)	(1,0)	(1,0)	
L1D -13>	(1,112)	(22,0)	(14,0)	(2,2)	(11,1)	(8,1)	(262,0)	(1,0)	(1,0)	(1,0)	(1,0)	(1,0)	(1,0)	(1,0)	(1,0)	(1,0)	
L1D -12>	(11,122)	(-6,2)	(-108,0)	(13,0)	(24,0)	(5,1)	(1,0)	(1,0)	(1,0)	(1,0)	(1,0)	(1,0)	(1,0)	(1,0)	(1,0)	(1,0)	
L1D -11>	(-232,1)	(8,16)	(-1,108)	(12,32)	(1,7)	(-19,2)	(-8,21)	(201,1)	(33,1)	(30,1)	(-428,1)	(-106,2)	(-404,1)	(-23,1)	(-64,1)	(290,1)	
L1D -10>	(26,1)	(319,1)	(2,106)	(299,1)	(4,54)	(18,7)	(28,7)	(10,2)	(-14,0)	(88,0)	(390,0)	(11,1)	(-24,0)	(-54,0)	(14,0)	(1,0)	
L1D -9>	(-7,93)	(-1,37)	(8,90)	(10,11)	(-170,1)	(-10,5)	(9,1)	(16,0)	(2,1)	(26,0)	(-66,0)	(-106,0)	(168,0)	(4,0)	(1,0)	(245,0)	
L1D -8>	(-1,62)	(10,40)	(9,1)	(-17,4)	(-116,0)	(24,66)	(13,1)	(56,0)	(170,0)	(-14,0)	(246,0)	(15,1)	(134,0)	(-38,0)	(-127,0)	(60,0)	
L1D -7>	(-13,73)	(14,4)	(1,8)	(8,2)	(32,7)	(-61,0)	(16,2)	(-3,2)	(18,3)	(-1,2)	(152,0)	(15,0)	(1,0)	(1,0)	(1,0)	(1,0)	
L1D -6>	(17,16)	(28,106)	(103,1)	(62,1)	(21,42)	(8,80)	(-9,7)	(74,1)	(-104,0)	(7,1)	(3,0)	(22,3)	(100,0)	(368,0)	(0,1)	(-88,0)	
L1D -5>	(28,2)	(2,0)	(29,100)	(4,0)	(3,0)	(-1,0)	(6,2)	(0,0)	(1,0)	(1,0)	(1,0)	(1,0)	(1,0)	(1,0)	(1,0)	(1,0)	
L1D -4>	(-1,72)	(1,115)	(5,94)	(104,1)	(11,12)	(-4,3)	(-82,1)	(3,3)	(-25,3)	(4,1)	(2,10)	(0,3)	(-48,1)	(-140,1)	(-78,1)	(96,0)	
L1D -3>	(2,126)	(-3,0)	(4,127)	(5,0)	(-10,7)	(0,7)	(14,126)	(11,14)	(80,0)	(-25,0)	(35,3)	(-1,1)	(-27,0)	(-2,2)	(1,5)	(-131,0)	
L1D -2>	(14,2)	(2,96)	(4,12)	(37,0)	(1,6)	(11,0)	(28,9)	(7,0)	(3,0)	(112,0)	(195,0)	(-3,0)	(17,0)	(130,0)	(0,0)	(-107,0)	
L1D -1>	(-309,1)	(2,107)	(-12,64)	(7,2)	(-332,1)	(-33,7)	(4,82)	(-2,1)	(1,8)	(43,1)	(295,1)	(-1,105)	(28,3)	(107,1)	(-129,1)	(8,4)	
L1D 0>	(20,16)	(8,0)	(1,27)	(0,72)	(4,0)	(-509,0)	(84,0)	(-2,0)	(7,0)	(6,0)	(-1,0)	(3,0)	(-4,0)	(-37,0)	(-3,0)	(2,0)	
L1D 1>	(1,94)	(2,28)	(-34,0)	(-35,0)	(-3,1)	(-199,0)	(3,1)	(-6,0)	(0,21)	(-267,0)	(4,0)	(34,0)	(6,0)	(-5,0)	(-2,1)	(17,0)	
L1D 2>	(4,3)	(14,2)	(12,0)	(3,9)	(-16,68)	(1,10)	(-2,75)	(-4,1)	(16,60)	(-3,64)	(-1,69)	(6,65)	(18,5)	(2,4)	(9,46)	(-8,5)	
L1D 3>	(-4,12)	(1,50)	(3,82)	(8,54)	(2,24)	(4,3)	(-1,9)	(-2,2)	(-3,2)	(0,0)	(16,0)	(6,0)	(24,0)	(-5,0)	(-511,1)	(-16,0)	
L1D 4>	(1,17)	(27,3)	(32,1)	(-3,90)	(-1,70)	(16,3)	(2,0)	(-19,4)	(10,0)	(-16,1)	(4,0)	(0,0)	(3,0)	(-4,0)	(14,0)	(-5,0)	
L1D 5>	(-18,98)	(18,1)	(-28,45)	(-3,31)	(8,104)	(-2,2)	(1,88)	(-1,26)	(20,2)	(0,4)	(-4,2)	(-131,1)	(-5,2)	(-166,1)	(3,3)	(-15,1)	
L1D 6>	(2,2)	(-6,0)	(-70,0)	(37,0)	(9,0)	(0,0)	(6,0)	(-1,0)	(27,88)	(-5,0)	(-3,0)	(1,0)	(1,0)	(1,0)	(1,0)	(1,0)	
L1D 7>	(4,0)	(-1,3)	(1,1)	(11,4)	(-6,0)	(28,0)	(-12,0)	(-7,0)	(106,0)	(0,0)	(-106,0)	(70,0)	(7,0)	(138,0)	(18,96)	(-13,2)	
L1D 8>	(19,0)	(-12,7)	(3,0)	(13,33)	(-13,4)	(-3,9)	(15,3)	(-102,0)	(1,0)	(22,108)	(16,7)	(14,1)	(0,0)	(-8,0)	(2,2)	(10,1)	
L1D 9>	(259,0)	(-48,0)	(-1,0)	(10,0)	(1,0)	(28,0)	(-9,0)	(2,0)	(-26,34)	(7,116)	(-60,8)	(-13,2)	(3,0)	(-6,0)	(1,0)	(1,0)	
L1D 10>	(14,97)	(138,1)	(-17,28)	(-10,9)	(-19,11)	(-92,1)	(1,18)	(5,32)	(-174,1)	(218,0)	(11,3)	(23,2)	(28,3)	(66,23)	(-1,8)	(0,5)	
L1D 11>	(11,77)	(-19,61)	(9,26)	(-17,6)	(-18,16)	(-31,3)	(-23,84)	(-7,4)	(-21,0)	(-11,0)	(5,1)	(-1,0)	(1,0)	(1,0)	(1,0)	(1,0)	
L1D 12>	(1,11)	(-114,1)	(-12,8)	(2,9)	(22,108)	(-75,1)	(-9,67)	(-74,4)	(24,1)	(-100,1)	(-22,1)	(-80,1)	(-288,1)	(16,2)	(-90,1)	(-166,1)	
L1D 13>	(-8,3)	(-24,49)	(-6,87)	(-1,8)	(9,1)	(2,3)	(-7,11)	(22,6)	(-25,77)	(10,9)	(-18,9)	(-10,28)	(-26,18)	(-12,11)	(1,4)	(-15,3)	
L1D 14>	(-7,3)	(4,5)	(31,0)	(-40,76)	(2,76)	(7,0)	(1,0)	(-17,0)	(-2,2)	(11,8)	(64,0)	(18,0)	(-1,0)	(-38,0)	(-14,0)	(-112,0)	
L1D 15>	(-18,127)	(-1,41)	(1,18)	(3,1)	(-250,1)	(-14,9)	(-15,8)	(-404,1)	(30,1)	(17,1)	(-210,0)	(10,1)	(70,0)	(1,0)	(1,0)	(1,0)	
L1D 16>	(78,0)	(-16,0)	(-15,0)	(-178,0)	(-14,2)	(-24,102)	(-3,11)	(12,0)	(-7,21)	(-2,0)	(-48,0)	(18,0)	(1,0)	(1,0)	(1,0)	(1,0)	
L1D 17>	(5,4)	(-13,101)	(-1,0)	(-17,0)	(74,0)	(-15,0)	(10,0)	(1,0)	(1,0)	(1,0)	(1,0)	(1,0)	(1,0)	(1,0)	(1,0)	(1,0)	
L1D 18>	(-6,1)	(76,0)	(5,0)	(78,0)	(-19,1)	(-392,0)	(16,12)	(-31,109)	(-3,1)	(44,0)	(-10,0)	(-23,1)	(1,0)	(1,0)	(1,0)	(1,0)	
L1D 19>	(1,48)	(-1,73)	(10,4)	(275,1)	(-19,17)	(0,1)	(32,0)	(72,0)	(300,0)	(-236,0)	(-160,0)	(-261,0)	(-260,0)	(-64,0)	(-318,0)	(256,0)	
L1D 20>	(-20,78)	(132,1)	(16,0)	(-270,0)	(200,0)	(-1,0)	(1,0)	(1,0)	(1,0)	(1,0)	(1,0)	(1,0)	(1,0)	(1,0)	(1,0)	(1,0)	
L1D 21>	(-12,88)	(-1,4)	(14,7)	(-21,2)	(-140,0)	(85,41)	(38,0)	(-269,0)	(98,0)	(1,0)	(1,0)	(1,0)	(1,0)	(1,0)	(1,0)	(1,0)	
L1D 22>	(-8,9)	(-490,0)	(-14,1)	(-3,0)	(-1,121)	(-17,0)	(-22,0)	(-31,1)	(9,0)	(68,0)	(1,0)	(1,0)	(1,0)	(1,0)	(1,0)	(1,0)	
L1D 23>	(-17,125)	(-1,85)	(-23,29)	(-10,2)	(-239,1)	(13,11)	(-28,2)	(-29,2)	(33,1)	(-150,1)	(-259,1)	(-165,1)	(-177,1)	(1,2)	(1,0)	(1,0)	
L1D 24>	(-7,66)	(-270,0)	(-130,0)	(-1,0)	(-24,1)	(34,0)	(207,0)	(-200,0)	(-16,0)	(20,0)	(3,0)	(108,0)	(22,0)	(1,1)	(1,0)	(1,0)	
L1D 25>	(-25,108)	(166,0)	(-1,1)	(-226,0)	(1,0)	(1,0)	(1,0)	(1,0)	(1,0)	(1,0)	(1,0)	(1,0)	(1,0)	(1,0)	(1,0)	(1,0)	
L1D 26>	(10,6)	(-24,2)	(-26,32)	(1,10)	(-82,1)	(-1,8)	(-16,1)	(-23,29)	(30,1)	(-466,1)	(-368,1)	(2,4)	(317,1)	(-142,1)	(-288,1)	(-154,1)	
L1D 27>	(-18,97)	(-22,101)	(-33,0)	(-25,3)	(-1,0)	(-27,0)	(-60,0)	(1,0)	(1,0)	(1,0)	(1,0)	(1,0)	(1,0)	(1,0)	(1,0)	(1,0)	
L1D 28>	(-17,10)	(-26,7)	(-60,6)	(-40,0)	(-27,79)	(-2,2)	(-14,0)	(74,0)	(-11,0)	(-28,0)	(1,0)	(-3,0)	(1,0)	(1,0)	(1,0)	(1,0)	
L1D 29>	(-4,0)	(-3,89)	(-1,1)	(-106,0)	(-29,0)	(1,0)	(1,0)	(1,0)	(1,0)	(1,0)	(1,0)	(1,0)	(1,0)	(1,0)	(1,0)	(1,0)	
L1D 30>	(-22,120)	(373,1)	(-30,28)	(3,6)	(-21,2)	(2,2)	(-2,1)	(1,10)	(-106,22)	(22,3)	(-94,1)	(-40,1)	(10,39)	(-1,4)	(177,1)	(120,2)	
L1D 31>	(1,28)	(-17,14)	(6,6)	(-1,99)	(-31,32)	(127,1)	(4,3)	(-60,28)	(-75,1)	(10,5)	(-184,1)	(76,1)	(-98,1)	(-66,1)	(-177,1)	(-120,1)	
L1D 32>	(-4,1)	(-32,3)	(-146,1)	(-17,112)	(240,1)	(2,1)	(1,1)	(-1,1)	(66,1)	(38,1)	(18,1)	(-56,0)	(76,0)	(16,0)	(-148,0)	(-162,0)	
L1D 33>	(1,7)	(-1,102)	(-33,32)	(164,1)	(-241,1)	(3,5)	(13,5)	(-99,1)	(-392,1)	(10,1)	(-28,1)	(329,1)	(-446,1)	(-34,1)	(1,0)	(1,0)	
L1D 34>	(1,25)	(-1,16)	(-20,2)	(-34,19)	(-17,96)	(98,1)	(-196,1)	(-22,1)	(112,1)	(-106,6)	(66,2)	(249,1)	(341,1)	(-210,1)	(80,1)	(24,1)	
L1D 35>	(-1,6)	(-166,0)	(-35,2)	(62,0)	(-3,10)	(-14,123)	(92,0)	(10,6)	(152,0)	(1,0)	(1,0)	(1,0)	(1,0)	(1,0)	(1,0)	(1,0)	
L1D 36>	(-1,10)	(-36,32)	(78,2)	(1,5)	(66,2)	(-126,1)	(-34,2)	(-76,1)	(186,1)	(-44,2)	(127,1)	(26,1)	(74,1)	(142,1)	(36,1)	(-128,2)	
L1D 37>	(-1,74)	(1,9)	(-37,18)	(-132,1)	(-42,2)	(12,1)	(28,0)	(158,0)	(10,4)	(300,0)	(-293,0)	(212,0)	(20,0)	(76,0)	(1,0)	(1,0)	
L1D 38>	(1,11)	(2,5)	(62,5)	(-38,32)	(43,12)	(-133,2)	(42,8)	(63,4)	(206,1)	(278,1)	(140,1)	(14,2)	(48,11)	(177,1)	(-190,2)	(0,2)	
L1D 39>	(-1,103)	(0,1)	(1,7)	(-39,30)	(-96,1)	(3,2)	(144,1)	(343,1)	(-38,1)	(66,1)	(-168,1)	(308,1)	(8,1)	(-60,1)	(-42,3)	(-40,1)	
L1D 40>	(-40,105)	(313,0)	(-42,0)	(-111,0)	(6,0)	(1,0)	(1,0)	(1,0)	(1,0)	(1,0)	(1,0)	(1,0)	(1,0)	(1,0)	(1,0)	(1,0)	
L1D 41>	(-1,112)	(-106,9)	(-117,1)	(1,5)	(-41,34)	(50,1)	(-260,1)	(-403,1)	(-83,1)	(-26,1)	(52,1)	(98,1)	(-276,1)	(123,1)	(-42,2)	(-43,1)	
L1D 42>	(13,11)	(-1,10)	(-42,34)	(1,15)	(-106,9)	(90,1)	(94,1)	(-76,2)	(122,1)	(128,2)	(46,1)	(-16,1)	(-456,1)	(68,2)	(168,2)	(-104,1)	
L1D 43>	(-1,125)	(-60,4)	(1,45)	(2,36)	(-43,32)	(-106,14)	(5,2)	(-76,1)	(3,3)	(-360,1)	(90,1)	(26,1)	(-96,1)	(4,1)	(-42,4)	(0,2)	
L1D 44>	(-1,7)	(-44,32)	(14,2)	(-42,3)	(169,2)	(0,2)	(-484,1)	(416,1)	(1,12)	(-36,2)	(46,1)	(-14,1)	(355,1)	(-96,3)	(-150,2)	(320,1)	
L1D 45>	(-1,101)	(1,11)	(-45,32)	(60,1)	(44,1)	(0,2)	(150,1)	(-188,1)	(-71,1)	(34,1)	(54,1)	(-404,1)	(41,1)	(45,1)	(2,1)	(-42,2)	
L1D 46>	(-1,16)	(-46,33)	(1,10)	(-110,2)	(84,2)	(-41,1)	(32,2)	(-62,1)	(160,2)	(-172,1)	(-208,1)	(-70,1)	(210,1)	(-188,1)	(-162,1)	(-156,1)	
L1D 47>	(1,9)	(-1,99)	(-47,32)	(-106,9)	(-116,1)	(-366,1)	(-238,1)	(164,1)	(-236,1)	(-132,1)	(-42,1)	(-46,2)	(1,0)	(1,0)	(1,0)	(1,0)	
L1D 48>	(-48,31)	(1,12)	(-106,10)	(-16,1)	(-12,1)	(-4,2)	(72,2)	(141,1)	(-138,2)	(-172,1)	(281,1)	(-70,1)	(-118,1)	(-74,1)	(90,1)	(203,1)	
L1D 49>	(-106,5)	(-1,100)	(-49,31)	(1,14)	(206,1)	(-192,1)	(250,1)	(-184,1)	(384,1)	(-68,1)	(-389,1)	(-359,1)	(2,1)	(-48,1)	(260,1)	(1,0)	
L1D 50>	(-1,9)	(1,11)	(-50,36)	(243,1)	(114,1)	(-84,1)	(66,2)	(235,1)	(18,3)	(-316,1)	(444,1)	(-202,2)	(-184,1)	(12,1)	(165,2)	(-359,1)	
L1D 51>	(1,11)	(228,1)	(0,1)	(-1,94)	(-51,32)	(36,1)	(-100,1)	(13,1)	(-106,3)	(42,1)	(8,1)	(-276,1)	(96,1)	(-395,1)	(385,1)	(136,1)	
L1D 52>	(49,5)	(-62,2)	(-1,8)	(-52,33)	(1,15)	(168,2)	(4,1)	(8,1)	(-210,3)	(-70,2)	(401,1)	(98,1)	(195,1)	(-422,1)	(-356,1)	(20,2)	
L1D 53>	(1,2)	(-1,90)	(-53,32)	(-170,1)	(0,4)	(296,1)	(332,1)	(210,1)	(208,1)	(-56,1)	(235,1)	(-164,1)	(-50,1)	(-72,1)	(-397,1)	(117,1)	
L1D 54>	(-1,8)	(76,1)	(-54,32)	(-106,1)	(176,1)	(-42,4)	(-296,1)	(-212,1)	(-58,1)	(24,1)	(-226,1)	(-318,1)	(78,1)	(-150,1)	(284,1)	(398,1)	
L1D 55>	(-1,85)	(-55,32)	(1,19)	(195,1)	(50,1)	(145,1)	(-52,1)	(-88,1)	(-162,1)	(-4,1)	(1,0)	(1,0)	(1,0)	(1,0)	(1,0)	(1,0)	
L1D 56>	(-1,9)	(1,15)	(-56,34)	(36,2)	(-214,1)	(20,1)	(-182,1)	(313,1)	(42,1)	(-146,1)	(10,2)	(-71,1)	(3,4)	(213,1)	(305,1)	(83,1)	
L1D 57>	(1,14)	(-1,84)	(-57,32)	(168,1)	(115,1)	(-145,1)	(-219,1)	(-195,1)	(354,1)	(-106,2)	(-186,1)	(3,1)	(-63,1)	(2,1)	(65,1)	(0,1)	
L1D 58>	(-1,4)	(-58,32)	(1,7)	(-57,2)	(354,1)	(-72,4)	(-122,1)	(-74,2)	(104,1)	(-82,3)	(88,1)	(187,1)	(296,1)	(-118,1)	(-348,1)	(15,1)	
L1D 59>	(-1,102)	(-59,31)	(1,3)	(-210,1)	(-36,1)	(-182,1)	(61,1)	(-130,1)	(-67,1)	(3,1)	(1,0)	(1,0)	(1,0)	(1,0)	(1,0)	(1,0)	
L1D 60>	(1,21)	(-1,6)	(-60,33)	(-169,1)	(-164,1)	(66,1)	(63,1)	(-176,1)	(49,1)	(92,1)	(34,1)	(0,2)	(18,1)	(-106,2)	(-50,1)	(-26,2)	
L1D 61>	(-1,93)	(-61,32)	(1,5)	(-138,1)	(-106,2)	(-228,1)	(-212,1)	(122,1)	(-383,1)	(-127,1)	(2,2)	(-74,1)	(-96,1)	(-22,1)	(90,1)	(-411,1)	
L1D 62>	(-106,5)	(-62,32)	(1,17)	(-20,1)	(222,1)	(-100,1)	(269,1)	(348,1)	(-156,1)	(-24,2)	(6,2)	(-52,2)	(-128,1)	(88,1)	(-76,1)	(-312,1)	
L1D 63>	(-1,98)	(-63,32)	(1,4)	(29,9)	(-106,4)	(-119,1)	(34,9)	(38,2)	(28,4)	(-18,1)	(-114,1)	(-162,1)	(8,1)	(1,0)	(1,0)	(1,0)	
L1D 64>	(-1,9)	(-64,32)	(1,7)	(-42,1)	(-162,1)	(-183,1)	(154,1)	(-36,2)	(161,1)	(146,1)	(98,1)	(-68,1)	(-38,1)	(-4,1)	(139,1)	(46,1)	
L1D 65>	(-1,96)	(41,4)	(-65,32)	(1,2)	(9,1)	(-145,1)	(-174,1)	(-400,1)	(2,1)	(125,1)	(46,1)	(1,0)	(1,0)	(1,0)	(1,0)	(1,0)	
L1D 66>	(-1,4)	(298,1)	(-66,19)	(-106,100)	(1,5)	(133,1)	(-50,1)	(-82,2)	(274,1)	(86,1)	(80,1)	(24,1)	(-20,1)	(-34,1)	(-344,1)	(102,1)	
L1D 67>	(-1,96)	(-67,32)	(-431,1)	(1,1)	(14,1)	(-484,1)	(-184,1)	(-477,1)	(-232,1)	(-89,1)	(27,1)	(17,1)	(-20,1)	(18,1)	(85,1)	(22,1)	
L1D 68>	(1,9)	(-68,31)	(-1,5)	(-48,1)	(-26,1)	(286,1)	(-110,1)	(166,1)	(82,1)	(-330,1)	(86,2)	(-6,2)	(-76,2)	(-20,1)	(54,1)	(-4,2)	
L1D 69>	(1,10)	(-1,88)	(-69,31)	(-141,1)	(-321,1)	(-290,1)	(14,1)	(-136,1)	(-386,1)	(-309,1)	(-96,1)	(-215,1)	(-64,1)	(282,1)	(-38,1)	(-232,1)	
L1D 70>	(-70,33)	(-1,9)	(1,18)	(303,1)	(-26,1)	(-18,2)	(-374,1)	(-194,1)	(254,1)	(-64,1)	(72,1)	(12,2)	(-12,1)	(-116,2)	(-6,1)	(-16,1)	
L1D 71>	(-1,94)	(166,1)	(1,7)	(-71,32)	(-106,14)	(-222,1)	(-288,1)	(35,2)	(-132,1)	(-198,1)	(-32,1)	(-77,1)	(47,1)	(-10,1)	(-212,1)	(-285,1)	
L1D 72>	(93,1)	(-72,31)	(1,10)	(-1,6)	(46,1)	(-80,2)	(100,1)	(-25,1)	(-92,1)	(130,1)	(-328,2)	(-30,1)	(-62,2)	(-213,1)	(196,1)	(-39,1)	
L1D 73>	(-106,4)	(-1,91)	(1,7)	(-73,30)	(-68,1)	(308,1)	(-14,1)	(190,1)	(100,1)	(-72,1)	(-400,1)	(-42,1)	(8,1)	(98,1)	(-376,1)	(-131,1)	
L1D 74>	(1,9)	(-74,30)	(-1,2)	(-64,1)	(-92,4)	(-104,2)	(-32,1)	(-186,1)	(14,3)	(5,1)	(-50,1)	(-332,2)	(116,1)	(187,1)	(-98,3)	(8,2)	
L1D 75>	(1,7)	(-1,106)	(-75,26)	(229,1)	(-74,1)	(263,1)	(-364,1)	(-313,1)	(254,1)	(4,2)	(6,1)	(-106,1)	(19,2)	(-73,1)	(266,1)	(-150,1)	
L1D 76>	(-120,1)	(-76,24)	(30,26)	(-1,11)	(1,6)	(-406,1)	(54,1)	(-122,2)	(-62,1)	(-466,1)	(-180,1)	(-364,1)	(207,1)	(-42,2)	(-6,1)	(-128,1)	
L1D 77>	(1,11)	(-1,104)	(-106,33)	(-77,21)	(-181,1)	(264,1)	(-354,1)	(-108,1)	(-173,1)	(112,1)	(-287,1)	(-164,1)	(1,0)	(1,0)	(1,0)	(1,0)	
L1D 78>	(1,8)	(-78,21)	(-1,6)	(-106,13)	(-6,1)	(18,1)	(6,1)	(-152,1)	(-118,2)	(-46,2)	(-20,2)	(-66,2)	(46,1)	(-16,1)	(-84,1)	(136,1)	
L1D 79>	(1,8)	(-1,93)	(-79,22)	(-106,27)	(-6,1)	(23,1)	(-427,1)	(77,1)	(-204,1)	(-442,1)	(-110,1)	(54,1)	(-46,1)	(1,0)	(1,0)	(1,0)	
L1D 80>	(-80,20)	(1,12)	(-1,7)	(-38,1)	(186,1)	(106,1)	(361,2)	(-362,1)	(-324,1)	(10,1)	(38,1)	(-22,1)	(3,1)	(-256,1)	(320,1)	(-296,1)	
L1D 81>	(65,0)	(-1,10)	(-106,122)	(-81,1)	(-221,0)	(-113,0)	(1,0)	(1,0)	(1,0)	(1,0)	(1,0)	(1,0)	(1,0)	(1,0)	(1,0)	(1,0)	
L1D 82>	(1,10)	(-1,5)	(-82,13)	(-132,2)	(-14,1)	(-12,1)	(-76,1)	(-84,2)	(-384,1)	(-70,2)	(-194,2)	(-34,1)	(-56,2)	(40,2)	(10,1)	(347,1)	
L1D 83>	(-1,91)	(1,5)	(-83,17)	(-48,1)	(252,1)	(60,1)	(24,1)	(-84,12)	(-82,4)	(-40,1)	(-88,1)	(6,2)	(1,0)	(1,0)	(1,0)	(1,0)	
L1D 84>	(-1,5)	(1,5)	(-52,2)	(62,2)	(-86,3)	(-106,29)	(-85,5)	(-84,22)	(-114,1)	(-99,1)	(172,1)	(-176,1)	(-64,1)	(8,1)	(-124,1)	(-30,1)	
L1D 85>	(-88,2)	(-1,15)	(-106,93)	(-4,1)	(-256,1)	(117,0)	(-306,0)	(-370,0)	(1,0)	(1,0)	(1,0)	(1,0)	(1,0)	(1,0)	(1,0)	(1,0)	
L1D 86>	(4,0)	(-106,69)	(-8,0)	(1,0)	(-242,0)	(264,0)	(-270,0)	(-352,0)	(6,0)	(88,0)	(32,0)	(-156,0)	(-70,0)	(-114,0)	(-32,0)	(143,0)	
L1D 87>	(-1,96)	(-106,4)	(1,2)	(-87,15)	(0,1)	(-6,1)	(-244,1)	(-171,1)	(198,1)	(-64,1)	(-110,1)	(34,1)	(-294,1)	(138,1)	(-192,1)	(236,1)	
L1D 88>	(-106,44)	(1,10)	(-88,14)	(303,1)	(-36,3)	(98,1)	(106,1)	(-96,1)	(-154,1)	(92,1)	(-1,3)	(147,1)	(64,2)	(-56,1)	(40,1)	(-164,1)	
L1D 89>	(-1,95)	(-89,11)	(1,8)	(198,1)	(-30,1)	(-215,1)	(122,1)	(-296,1)	(-173,1)	(68,1)	(-187,1)	(-208,1)	(-84,1)	(-64,1)	(47,2)	(1,0)	
L1D 90>	(-1,5)	(-90,5)	(-106,84)	(2,1)	(-84,1)	(1,9)	(4,1)	(-30,1)	(-170,2)	(-150,1)	(22,1)	(-134,1)	(152,1)	(296,1)	(236,1)	(-142,1)	
L1D 91>	(-84,2)	(-1,11)	(3,1)	(-2,1)	(-90,3)	(-106,126)	(-306,1)	(269,0)	(1,0)	(1,0)	(1,0)	(1,0)	(1,0)	(1,0)	(1,0)	(1,0)	
L1D 92>	(-1,6)	(1,11)	(-92,6)	(-106,52)	(-198,2)	(-118,3)	(-276,1)	(78,1)	(-124,2)	(-130,1)	(-192,1)	(-44,1)	(-16,1)	(-318,1)	(-158,2)	(-330,1)	
L1D 93>	(1,1)	(-1,19)	(-106,67)	(0,0)	(-24,0)	(225,0)	(-2,0)	(39,0)	(-42,0)	(2,0)	(-27,0)	(1,0)	(1,0)	(1,0)	(1,0)	(1,0)	
[...]
L1D 472>	(-318,1)	(-352,1)	(-20,1)	(-424,1)	(1,0)	(1,0)	(1,0)	(1,0)	(1,0)	(1,0)	(1,0)	(1,0)	(1,0)	(1,0)	(1,0)	(1,0)	
L1D 473>	(-1,5)	(1,0)	(1,0)	(1,0)	(1,0)	(1,0)	(1,0)	(1,0)	(1,0)	(1,0)	(1,0)	(1,0)	(1,0)	(1,0)	(1,0)	(1,0)	
L1D 474>	(-1,1)	(-260,1)	(-290,1)	(-242,1)	(1,0)	(1,0)	(1,0)	(1,0)	(1,0)	(1,0)	(1,0)	(1,0)	(1,0)	(1,0)	(1,0)	(1,0)	
L1D 475>	(-1,5)	(1,0)	(1,0)	(1,0)	(1,0)	(1,0)	(1,0)	(1,0)	(1,0)	(1,0)	(1,0)	(1,0)	(1,0)	(1,0)	(1,0)	(1,0)	
L1D 476>	(-1,1)	(-124,1)	(-470,1)	(-492,1)	(1,0)	(1,0)	(1,0)	(1,0)	(1,0)	(1,0)	(1,0)	(1,0)	(1,0)	(1,0)	(1,0)	(1,0)	
L1D 477>	(-478,1)	(-339,1)	(-1,2)	(1,0)	(1,0)	(1,0)	(1,0)	(1,0)	(1,0)	(1,0)	(1,0)	(1,0)	(1,0)	(1,0)	(1,0)	(1,0)	
L1D 478>	(-1,1)	(-406,1)	(1,2)	(-451,1)	(1,0)	(1,0)	(1,0)	(1,0)	(1,0)	(1,0)	(1,0)	(1,0)	(1,0)	(1,0)	(1,0)	(1,0)	
L1D 479>	(-141,1)	(-1,5)	(1,0)	(1,0)	(1,0)	(1,0)	(1,0)	(1,0)	(1,0)	(1,0)	(1,0)	(1,0)	(1,0)	(1,0)	(1,0)	(1,0)	
L1D 480>	(-334,1)	(-18,1)	(-256,1)	(-462,1)	(1,0)	(1,0)	(1,0)	(1,0)	(1,0)	(1,0)	(1,0)	(1,0)	(1,0)	(1,0)	(1,0)	(1,0)	
L1D 481>	(-327,1)	(-1,6)	(-488,1)	(1,0)	(1,0)	(1,0)	(1,0)	(1,0)	(1,0)	(1,0)	(1,0)	(1,0)	(1,0)	(1,0)	(1,0)	(1,0)	
L1D 482>	(-88,1)	(1,1)	(-420,1)	(1,0)	(1,0)	(1,0)	(1,0)	(1,0)	(1,0)	(1,0)	(1,0)	(1,0)	(1,0)	(1,0)	(1,0)	(1,0)	
L1D 483>	(-1,3)	(1,0)	(1,0)	(1,0)	(1,0)	(1,0)	(1,0)	(1,0)	(1,0)	(1,0)	(1,0)	(1,0)	(1,0)	(1,0)	(1,0)	(1,0)	
L1D 484>	(-122,1)	(-214,1)	(-59,1)	(-58,1)	(1,0)	(1,0)	(1,0)	(1,0)	(1,0)	(1,0)	(1,0)	(1,0)	(1,0)	(1,0)	(1,0)	(1,0)	
L1D 485>	(-1,3)	(1,0)	(1,0)	(1,0)	(1,0)	(1,0)	(1,0)	(1,0)	(1,0)	(1,0)	(1,0)	(1,0)	(1,0)	(1,0)	(1,0)	(1,0)	
L1D 486>	(-20,1)	(1,0)	(1,0)	(1,0)	(1,0)	(1,0)	(1,0)	(1,0)	(1,0)	(1,0)	(1,0)	(1,0)	(1,0)	(1,0)	(1,0)	(1,0)	
L1D 487>	(-1,5)	(-106,1)	(1,0)	(1,0)	(1,0)	(1,0)	(1,0)	(1,0)	(1,0)	(1,0)	(1,0)	(1,0)	(1,0)	(1,0)	(1,0)	(1,0)	
L1D 488>	(-1,1)	(1,0)	(1,0)	(1,0)	(1,0)	(1,0)	(1,0)	(1,0)	(1,0)	(1,0)	(1,0)	(1,0)	(1,0)	(1,0)	(1,0)	(1,0)	
L1D 489>	(-1,5)	(1,0)	(1,0)	(1,0)	(1,0)	(1,0)	(1,0)	(1,0)	(1,0)	(1,0)	(1,0)	(1,0)	(1,0)	(1,0)	(1,0)	(1,0)	
L1D 490>	(-502,1)	(-236,1)	(-158,1)	(1,0)	(1,0)	(1,0)	(1,0)	(1,0)	(1,0)	(1,0)	(1,0)	(1,0)	(1,0)	(1,0)	(1,0)	(1,0)	
L1D 491>	(-1,3)	(1,0)	(1,0)	(1,0)	(1,0)	(1,0)	(1,0)	(1,0)	(1,0)	(1,0)	(1,0)	(1,0)	(1,0)	(1,0)	(1,0)	(1,0)	
L1D 492>	(-293,1)	(-316,1)	(1,0)	(1,0)	(1,0)	(1,0)	(1,0)	(1,0)	(1,0)	(1,0)	(1,0)	(1,0)	(1,0)	(1,0)	(1,0)	(1,0)	
L1D 493>	(-369,1)	(1,0)	(1,0)	(1,0)	(1,0)	(1,0)	(1,0)	(1,0)	(1,0)	(1,0)	(1,0)	(1,0)	(1,0)	(1,0)	(1,0)	(1,0)	
L1D 494>	(-458,1)	(-210,1)	(1,0)	(1,0)	(1,0)	(1,0)	(1,0)	(1,0)	(1,0)	(1,0)	(1,0)	(1,0)	(1,0)	(1,0)	(1,0)	(1,0)	
L1D 495>	(-1,2)	(1,0)	(1,0)	(1,0)	(1,0)	(1,0)	(1,0)	(1,0)	(1,0)	(1,0)	(1,0)	(1,0)	(1,0)	(1,0)	(1,0)	(1,0)	
L1D 496>	(-500,1)	(1,0)	(1,0)	(1,0)	(1,0)	(1,0)	(1,0)	(1,0)	(1,0)	(1,0)	(1,0)	(1,0)	(1,0)	(1,0)	(1,0)	(1,0)	
L1D 497>	(1,1)	(-1,2)	(1,0)	(1,0)	(1,0)	(1,0)	(1,0)	(1,0)	(1,0)	(1,0)	(1,0)	(1,0)	(1,0)	(1,0)	(1,0)	(1,0)	
L1D 498>	(-132,1)	(1,0)	(1,0)	(1,0)	(1,0)	(1,0)	(1,0)	(1,0)	(1,0)	(1,0)	(1,0)	(1,0)	(1,0)	(1,0)	(1,0)	(1,0)	
L1D 499>	(-1,2)	(1,0)	(1,0)	(1,0)	(1,0)	(1,0)	(1,0)	(1,0)	(1,0)	(1,0)	(1,0)	(1,0)	(1,0)	(1,0)	(1,0)	(1,0)	
L1D 500>	(1,0)	(1,0)	(1,0)	(1,0)	(1,0)	(1,0)	(1,0)	(1,0)	(1,0)	(1,0)	(1,0)	(1,0)	(1,0)	(1,0)	(1,0)	(1,0)	
L1D 501>	(1,0)	(1,0)	(1,0)	(1,0)	(1,0)	(1,0)	(1,0)	(1,0)	(1,0)	(1,0)	(1,0)	(1,0)	(1,0)	(1,0)	(1,0)	(1,0)	
L1D 502>	(-350,1)	(1,0)	(1,0)	(1,0)	(1,0)	(1,0)	(1,0)	(1,0)	(1,0)	(1,0)	(1,0)	(1,0)	(1,0)	(1,0)	(1,0)	(1,0)	
L1D 503>	(-58,1)	(1,0)	(1,0)	(1,0)	(1,0)	(1,0)	(1,0)	(1,0)	(1,0)	(1,0)	(1,0)	(1,0)	(1,0)	(1,0)	(1,0)	(1,0)	
L1D 504>	(-220,1)	(-154,1)	(1,0)	(1,0)	(1,0)	(1,0)	(1,0)	(1,0)	(1,0)	(1,0)	(1,0)	(1,0)	(1,0)	(1,0)	(1,0)	(1,0)	
L1D 505>	(-1,2)	(1,0)	(1,0)	(1,0)	(1,0)	(1,0)	(1,0)	(1,0)	(1,0)	(1,0)	(1,0)	(1,0)	(1,0)	(1,0)	(1,0)	(1,0)	
L1D 506>	(1,0)	(1,0)	(1,0)	(1,0)	(1,0)	(1,0)	(1,0)	(1,0)	(1,0)	(1,0)	(1,0)	(1,0)	(1,0)	(1,0)	(1,0)	(1,0)	
L1D 507>	(1,0)	(1,0)	(1,0)	(1,0)	(1,0)	(1,0)	(1,0)	(1,0)	(1,0)	(1,0)	(1,0)	(1,0)	(1,0)	(1,0)	(1,0)	(1,0)	
L1D 508>	(-370,1)	(1,0)	(1,0)	(1,0)	(1,0)	(1,0)	(1,0)	(1,0)	(1,0)	(1,0)	(1,0)	(1,0)	(1,0)	(1,0)	(1,0)	(1,0)	
L1D 509>	(-1,1)	(1,0)	(1,0)	(1,0)	(1,0)	(1,0)	(1,0)	(1,0)	(1,0)	(1,0)	(1,0)	(1,0)	(1,0)	(1,0)	(1,0)	(1,0)	
L1D 510>	(1,0)	(1,0)	(1,0)	(1,0)	(1,0)	(1,0)	(1,0)	(1,0)	(1,0)	(1,0)	(1,0)	(1,0)	(1,0)	(1,0)	(1,0)	(1,0)	
L1D 511>	(1,0)	(1,0)	(1,0)	(1,0)	(1,0)	(1,0)	(1,0)	(1,0)	(1,0)	(1,0)	(1,0)	(1,0)	(1,0)	(1,0)	(1,0)	(1,0)	

L2C -64>	(1,129)	(5,10)	(3,6)	(-14,2)	(2,13)	(11,4)	(10,2)	(-18,1)	(4,5)	(12,1)	(-46,1)	(-5,3)	(13,3)	(-7,1)	(6,4)	(20,1)	
L2C -63>	(59,1)	(1,244)	(3,1)	(4,3)	(2,1)	(55,1)	(6,2)	(14,0)	(15,0)	(37,0)	(1,0)	(1,0)	(1,0)	(1,0)	(1,0)	(1,0)	
L2C -62>	(1,20)	(17,1)	(-1,1)	(60,1)	(61,1)	(2,2)	(3,2)	(7,1)	(13,1)	(8,1)	(1,0)	(1,0)	(1,0)	(1,0)	(1,0)	(1,0)	
L2C -61>	(45,1)	(1,11)	(12,1)	(53,1)	(63,1)	(11,1)	(1,0)	(1,0)	(1,0)	(1,0)	(1,0)	(1,0)	(1,0)	(1,0)	(1,0)	(1,0)	
L2C -60>	(1,22)	(53,1)	(60,1)	(50,1)	(14,1)	(55,1)	(33,1)	(54,1)	(3,1)	(59,1)	(51,1)	(48,1)	(1,0)	(1,0)	(1,0)	(1,0)	
L2C -59>	(1,15)	(55,1)	(58,2)	(49,1)	(25,1)	(23,1)	(6,3)	(20,1)	(48,1)	(60,1)	(-1,1)	(1,0)	(1,0)	(1,0)	(1,0)	(1,0)	
L2C -58>	(44,1)	(1,12)	(21,1)	(11,2)	(48,1)	(2,2)	(45,1)	(55,2)	(31,1)	(47,1)	(10,1)	(6,1)	(-1,1)	(3,1)	(1,0)	(1,0)	
L2C -57>	(55,1)	(1,8)	(51,2)	(2,1)	(8,1)	(6,1)	(45,2)	(49,1)	(53,1)	(-3,2)	(10,1)	(54,1)	(58,1)	(43,1)	(-1,1)	(1,0)	
L2C -56>	(1,18)	(4,2)	(11,1)	(17,2)	(8,1)	(18,1)	(54,1)	(53,2)	(33,1)	(47,1)	(58,1)	(57,2)	(-1,1)	(51,2)	(-4,1)	(9,1)	
L2C -55>	(1,14)	(54,1)	(33,1)	(-1,5)	(3,2)	(-6,1)	(51,1)	(-3,1)	(11,1)	(-2,2)	(26,1)	(59,1)	(50,1)	(57,1)	(13,1)	(14,1)	
L2C -54>	(1,17)	(-1,3)	(-2,2)	(37,1)	(7,2)	(12,2)	(-8,1)	(11,1)	(53,1)	(31,1)	(4,1)	(3,1)	(58,2)	(48,2)	(16,1)	(1,0)	
L2C -53>	(52,3)	(55,1)	(2,3)	(1,9)	(37,1)	(16,1)	(59,1)	(-8,1)	(43,1)	(38,1)	(29,1)	(-4,1)	(-1,1)	(1,0)	(1,0)	(1,0)	
L2C -52>	(1,12)	(56,1)	(24,2)	(51,1)	(-8,1)	(-2,1)	(53,1)	(41,1)	(58,2)	(15,1)	(18,1)	(-7,1)	(7,1)	(35,1)	(-1,1)	(3,1)	
L2C -51>	(51,1)	(4,2)	(50,1)	(-6,1)	(26,1)	(1,3)	(-8,1)	(10,1)	(-5,2)	(-4,2)	(38,1)	(13,1)	(3,1)	(55,1)	(1,0)	(1,0)	
L2C -50>	(22,2)	(1,6)	(-6,1)	(55,1)	(28,1)	(26,1)	(62,1)	(51,2)	(-3,3)	(24,1)	(17,1)	(53,1)	(37,1)	(44,2)	(-13,1)	(45,1)	
L2C -49>	(20,1)	(1,2)	(63,1)	(45,1)	(-1,1)	(41,1)	(-2,1)	(48,1)	(26,1)	(-4,2)	(3,4)	(-8,1)	(9,1)	(54,2)	(2,1)	(44,1)	
L2C -48>	(61,2)	(32,1)	(30,1)	(-13,1)	(1,6)	(53,1)	(50,1)	(15,1)	(2,3)	(-5,2)	(-1,4)	(11,1)	(40,1)	(3,1)	(-3,1)	(-4,2)	
L2C -47>	(1,6)	(-1,4)	(20,1)	(52,4)	(48,1)	(2,2)	(55,1)	(-5,1)	(-2,2)	(12,1)	(45,2)	(-9,2)	(51,2)	(50,1)	(-16,1)	(1,0)	
L2C -46>	(2,2)	(1,21)	(47,2)	(-2,1)	(56,2)	(62,1)	(20,1)	(50,2)	(34,1)	(32,1)	(33,1)	(-5,1)	(-3,1)	(-13,1)	(-4,1)	(58,1)	
L2C -45>	(1,7)	(54,1)	(21,1)	(43,1)	(47,1)	(12,1)	(-6,1)	(5,1)	(41,1)	(40,1)	(-12,1)	(-13,1)	(4,1)	(-9,1)	(44,1)	(1,0)	
L2C -44>	(-14,1)	(61,1)	(1,17)	(40,1)	(6,1)	(45,2)	(-3,1)	(-5,1)	(19,1)	(-4,2)	(-11,1)	(-1,1)	(-8,1)	(-9,1)	(-2,2)	(22,1)	
L2C -43>	(41,2)	(47,1)	(1,31)	(34,1)	(3,2)	(-1,3)	(-14,1)	(55,1)	(53,1)	(-11,2)	(-6,1)	(37,1)	(-17,2)	(42,2)	(-3,2)	(1,0)	
L2C -42>	(14,1)	(1,7)	(-1,2)	(43,1)	(-11,1)	(46,1)	(60,1)	(40,1)	(45,1)	(34,1)	(35,1)	(50,1)	(1,0)	(1,0)	(1,0)	(1,0)	
L2C -41>	(1,7)	(-2,1)	(23,1)	(36,3)	(44,2)	(34,2)	(4,1)	(45,1)	(-6,1)	(13,1)	(3,1)	(-3,1)	(-14,1)	(37,1)	(1,0)	(1,0)	
L2C -40>	(1,33)	(-1,5)	(43,2)	(2,1)	(45,2)	(-2,1)	(50,2)	(33,1)	(41,2)	(25,1)	(-8,1)	(1,0)	(1,0)	(1,0)	(1,0)	(1,0)	
L2C -39>	(1,32)	(-6,1)	(51,1)	(-17,1)	(7,2)	(43,1)	(-1,1)	(4,1)	(2,1)	(-3,2)	(-2,1)	(1,0)	(1,0)	(1,0)	(1,0)	(1,0)	
L2C -38>	(-3,1)	(1,8)	(39,1)	(-7,2)	(34,1)	(-1,1)	(36,1)	(33,1)	(-5,1)	(46,1)	(3,1)	(12,1)	(1,0)	(1,0)	(1,0)	(1,0)	
L2C -37>	(1,10)	(-10,1)	(41,2)	(-11,1)	(12,1)	(3,1)	(-7,1)	(-8,1)	(-1,1)	(32,1)	(-6,1)	(38,1)	(10,1)	(27,1)	(1,0)	(1,0)	
L2C -36>	(1,16)	(40,1)	(5,1)	(28,1)	(35,1)	(45,1)	(-10,1)	(-26,1)	(38,2)	(1,0)	(1,0)	(1,0)	(1,0)	(1,0)	(1,0)	(1,0)	
L2C -35>	(-22,1)	(1,16)	(25,1)	(41,2)	(36,2)	(48,1)	(53,1)	(-26,1)	(-2,1)	(34,1)	(56,1)	(-6,1)	(1,0)	(1,0)	(1,0)	(1,0)	
L2C -34>	(1,13)	(36,1)	(33,1)	(-4,1)	(13,2)	(-17,1)	(-12,1)	(-22,1)	(5,1)	(1,0)	(1,0)	(1,0)	(1,0)	(1,0)	(1,0)	(1,0)	
L2C -33>	(1,7)	(-8,1)	(28,1)	(5,1)	(14,1)	(3,2)	(-1,1)	(40,1)	(37,1)	(53,1)	(2,1)	(-12,1)	(-4,1)	(18,1)	(1,0)	(1,0)	
L2C -32>	(1,20)	(28,1)	(12,1)	(30,1)	(57,1)	(-5,1)	(-2,1)	(24,1)	(59,1)	(1,0)	(1,0)	(1,0)	(1,0)	(1,0)	(1,0)	(1,0)	
L2C -31>	(33,1)	(-3,2)	(-1,3)	(54,1)	(1,4)	(46,1)	(-19,1)	(44,1)	(3,1)	(27,1)	(28,1)	(-11,1)	(-9,1)	(-2,1)	(1,0)	(1,0)	
L2C -30>	(40,1)	(43,1)	(50,1)	(1,7)	(27,1)	(-11,1)	(-18,1)	(-7,1)	(30,1)	(32,1)	(57,1)	(21,1)	(28,1)	(58,1)	(18,1)	(1,0)	
L2C -29>	(1,7)	(36,1)	(38,1)	(32,1)	(27,2)	(7,1)	(24,1)	(-2,1)	(30,1)	(11,1)	(1,0)	(1,0)	(1,0)	(1,0)	(1,0)	(1,0)	
L2C -28>	(1,16)	(22,1)	(-5,1)	(-1,1)	(-4,2)	(19,2)	(30,1)	(2,1)	(48,1)	(43,1)	(-21,1)	(33,1)	(7,2)	(47,1)	(1,0)	(1,0)	
L2C -27>	(1,6)	(-6,1)	(-3,2)	(-22,1)	(-11,1)	(28,1)	(29,1)	(-25,1)	(20,1)	(-4,1)	(24,2)	(-18,1)	(-34,1)	(1,0)	(1,0)	(1,0)	
L2C -26>	(-33,2)	(31,1)	(1,6)	(28,1)	(-10,1)	(-1,2)	(-32,1)	(61,1)	(60,1)	(-12,1)	(-8,1)	(52,1)	(18,1)	(-25,1)	(1,0)	(1,0)	
L2C -25>	(1,6)	(-10,1)	(33,2)	(10,1)	(24,1)	(44,1)	(-8,1)	(-4,1)	(51,1)	(-17,1)	(28,1)	(13,1)	(-2,1)	(20,1)	(-12,1)	(19,1)	
L2C -24>	(2,1)	(1,14)	(48,2)	(22,1)	(-1,1)	(-20,1)	(28,1)	(-4,1)	(-7,1)	(-8,1)	(7,1)	(1,0)	(1,0)	(1,0)	(1,0)	(1,0)	
L2C -23>	(28,1)	(1,17)	(14,1)	(-3,1)	(3,1)	(26,1)	(1,0)	(1,0)	(1,0)	(1,0)	(1,0)	(1,0)	(1,0)	(1,0)	(1,0)	(1,0)	
L2C -22>	(1,8)	(-1,2)	(13,1)	(11,1)	(28,2)	(-3,1)	(3,1)	(2,1)	(60,1)	(23,1)	(29,1)	(24,1)	(1,0)	(1,0)	(1,0)	(1,0)	
L2C -21>	(1,17)	(-3,1)	(-4,2)	(-9,1)	(37,1)	(50,1)	(33,1)	(29,1)	(25,2)	(14,1)	(60,1)	(24,1)	(3,2)	(-1,1)	(5,1)	(2,2)	
L2C -20>	(1,11)	(-18,1)	(23,1)	(-2,1)	(-1,2)	(-4,1)	(-9,1)	(16,1)	(21,1)	(18,1)	(-8,1)	(2,1)	(28,1)	(32,1)	(26,1)	(1,0)	
L2C -19>	(1,8)	(-1,5)	(-25,2)	(23,1)	(33,1)	(-31,1)	(-3,1)	(15,1)	(18,1)	(4,1)	(9,1)	(58,1)	(13,1)	(6,1)	(49,1)	(17,1)	
L2C -18>	(4,1)	(36,1)	(1,12)	(7,1)	(19,1)	(-24,1)	(14,2)	(35,1)	(-33,1)	(20,1)	(23,1)	(-6,1)	(28,1)	(10,1)	(-15,1)	(6,1)	
L2C -17>	(1,28)	(-1,4)	(12,2)	(19,1)	(-17,1)	(-4,1)	(-39,1)	(11,1)	(56,1)	(-5,1)	(-11,1)	(4,2)	(47,1)	(2,1)	(-9,1)	(21,1)	
L2C -16>	(1,44)	(11,6)	(61,1)	(16,1)	(-31,1)	(-1,3)	(45,1)	(2,1)	(-8,1)	(53,1)	(5,1)	(10,2)	(6,1)	(58,1)	(22,1)	(17,1)	
L2C -15>	(1,14)	(10,3)	(-1,4)	(9,1)	(5,2)	(-37,1)	(-30,1)	(4,1)	(-25,1)	(16,1)	(12,1)	(29,1)	(2,1)	(-4,1)	(26,1)	(22,1)	
L2C -14>	(9,1)	(11,2)	(57,2)	(6,2)	(-41,1)	(3,1)	(27,1)	(16,1)	(15,9)	(2,1)	(13,2)	(-4,1)	(5,1)	(1,9)	(22,1)	(-1,4)	
L2C -13>	(1,13)	(14,21)	(7,3)	(11,2)	(15,3)	(10,3)	(4,3)	(5,5)	(-1,8)	(9,3)	(60,1)	(12,1)	(6,3)	(3,1)	(57,1)	(16,1)	
L2C -12>	(1,17)	(-2,2)	(-1,1)	(15,2)	(9,4)	(26,1)	(4,2)	(20,1)	(5,1)	(11,1)	(30,1)	(24,1)	(-25,1)	(34,2)	(2,1)	(-3,1)	
L2C -11>	(1,25)	(2,6)	(7,3)	(10,3)	(3,5)	(-3,1)	(-18,1)	(12,4)	(-51,1)	(-43,1)	(-1,3)	(5,1)	(-9,1)	(-2,1)	(-33,1)	(13,1)	
L2C -10>	(7,3)	(2,9)	(1,45)	(5,3)	(-1,6)	(-7,1)	(12,1)	(36,1)	(-46,1)	(-20,1)	(11,4)	(-15,1)	(18,1)	(22,1)	(-19,1)	(10,1)	
L2C -9>	(1,69)	(7,12)	(-1,2)	(10,10)	(11,2)	(-3,2)	(2,4)	(8,8)	(5,3)	(9,1)	(53,1)	(17,1)	(-44,1)	(3,5)	(-40,1)	(-4,1)	
L2C -8>	(-5,2)	(1,41)	(5,9)	(7,3)	(-1,7)	(11,3)	(-2,3)	(-48,2)	(-3,6)	(9,10)	(58,3)	(2,5)	(12,3)	(6,1)	(19,1)	(3,3)	
L2C -7>	(8,15)	(1,34)	(6,2)	(3,5)	(-46,3)	(-21,1)	(-8,1)	(4,3)	(13,1)	(-54,1)	(20,1)	(7,2)	(15,2)	(2,11)	(-1,6)	(-4,1)	
L2C -6>	(1,39)	(-1,15)	(3,3)	(-7,1)	(2,16)	(9,1)	(4,6)	(-23,1)	(7,19)	(31,1)	(-19,1)	(-48,1)	(-41,1)	(26,2)	(33,2)	(-21,1)	
L2C -5>	(6,20)	(3,6)	(-6,3)	(2,4)	(1,61)	(-5,2)	(0,40)	(4,17)	(-4,1)	(11,3)	(10,2)	(8,4)	(-56,1)	(13,2)	(-22,1)	(-1,3)	
L2C -4>	(4,2)	(-20,1)	(7,2)	(5,8)	(1,61)	(3,28)	(-1,13)	(10,1)	(-27,1)	(18,1)	(21,1)	(6,8)	(-6,4)	(30,1)	(2,10)	(0,2)	
L2C -3>	(1,47)	(-2,4)	(4,17)	(-3,5)	(5,7)	(-5,1)	(-18,1)	(0,6)	(-1,11)	(35,1)	(3,10)	(7,4)	(8,3)	(-4,6)	(22,2)	(2,28)	
L2C -2>	(-7,8)	(1,84)	(-2,11)	(2,10)	(-3,8)	(-1,19)	(5,7)	(3,40)	(-4,3)	(-5,5)	(9,1)	(4,8)	(-56,1)	(-52,2)	(15,1)	(6,4)	
L2C -1>	(-1,58)	(2,248)	(63,1)	(3,32)	(4,28)	(-3,14)	(-2,17)	(11,8)	(6,10)	(7,4)	(1,41)	(8,4)	(-4,12)	(5,13)	(9,6)	(-6,4)	
L2C 0>	(0,26)	(-1,11)	(-5,3)	(3,2)	(1,63)	(-3,2)	(-8,3)	(-2,9)	(2,5)	(-9,5)	(-13,2)	(4,1)	(-12,1)	(9,1)	(-14,1)	(1,0)	
L2C 1>	(1,205)	(3,0)	(-59,0)	(53,0)	(-14,0)	(-9,0)	(-2,0)	(-13,0)	(-58,0)	(-1,0)	(-3,0)	(0,0)	(-5,0)	(-63,2)	(2,3)	(-39,0)	
L2C 2>	(1,203)	(-1,85)	(7,1)	(2,20)	(-5,9)	(-3,12)	(-59,1)	(3,8)	(-17,2)	(-13,1)	(-2,2)	(-11,1)	(-63,3)	(-40,1)	(0,5)	(-4,16)	
L2C 3>	(1,142)	(-4,2)	(2,29)	(3,11)	(-1,33)	(4,8)	(-54,2)	(-3,3)	(-51,1)	(-2,52)	(34,1)	(-9,3)	(-11,3)	(-14,3)	(7,3)	(51,2)	
L2C 4>	(1,97)	(2,21)	(-6,6)	(-28,1)	(-63,2)	(5,4)	(-1,18)	(-22,2)	(-52,2)	(-3,22)	(10,1)	(6,3)	(-10,4)	(21,1)	(-2,9)	(-4,1)	
L2C 5>	(-48,2)	(1,65)	(-3,8)	(-4,10)	(-2,10)	(5,4)	(-1,8)	(-10,2)	(49,1)	(-6,4)	(-61,1)	(0,3)	(2,18)	(-32,1)	(8,2)	(-59,2)	
L2C 6>	(7,3)	(1,44)	(-9,1)	(-1,6)	(-5,7)	(-4,7)	(-59,1)	(4,2)	(-6,1)	(55,1)	(-20,1)	(-28,1)	(-8,3)	(-2,3)	(46,2)	(2,12)	
L2C 7>	(3,2)	(1,84)	(-1,6)	(37,1)	(50,1)	(2,6)	(15,2)	(-3,6)	(-8,4)	(-6,4)	(-5,2)	(20,1)	(6,1)	(-7,5)	(5,1)	(-21,1)	
L2C 8>	(1,46)	(-3,3)	(5,2)	(-10,2)	(-1,4)	(-7,4)	(-4,3)	(-2,3)	(-9,3)	(2,5)	(13,1)	(-18,1)	(-14,1)	(-53,1)	(3,1)	(-29,1)	
L2C 9>	(-5,2)	(-59,1)	(-8,9)	(1,41)	(5,2)	(-10,8)	(-11,2)	(-1,2)	(-43,1)	(-14,1)	(-56,1)	(2,4)	(-17,1)	(-3,3)	(-7,2)	(-9,2)	
L2C 10>	(-6,2)	(1,26)	(-4,2)	(-1,5)	(-13,2)	(-27,1)	(-2,2)	(-36,1)	(14,1)	(-7,3)	(2,1)	(-11,2)	(-57,1)	(-54,1)	(-26,1)	(-14,2)	
L2C 11>	(3,5)	(1,24)	(-13,1)	(2,3)	(-6,2)	(-2,2)	(-10,6)	(21,1)	(-59,1)	(-1,5)	(-62,2)	(42,1)	(37,1)	(-21,1)	(-12,1)	(-16,1)	
L2C 12>	(1,16)	(2,4)	(-6,2)	(-13,2)	(-2,3)	(-63,2)	(27,1)	(-25,1)	(15,1)	(-1,4)	(-14,2)	(6,4)	(-19,1)	(-5,1)	(-36,1)	(-50,1)	
L2C 13>	(1,25)	(-1,2)	(-4,1)	(-8,2)	(5,1)	(15,1)	(39,1)	(33,1)	(-56,1)	(-14,1)	(13,1)	(0,1)	(18,1)	(44,2)	(3,2)	(-19,1)	
L2C 14>	(2,4)	(1,20)	(-6,2)	(-3,1)	(-8,4)	(3,2)	(-25,1)	(17,1)	(8,1)	(-13,2)	(45,1)	(-4,1)	(-5,1)	(6,2)	(7,1)	(-16,1)	
L2C 15>	(1,20)	(-9,2)	(5,1)	(33,1)	(-2,2)	(30,1)	(4,1)	(22,1)	(-4,1)	(-6,1)	(19,1)	(-19,2)	(-21,1)	(-38,1)	(-43,1)	(-1,1)	
L2C 16>	(1,10)	(2,1)	(47,1)	(-12,1)	(5,1)	(-1,2)	(-9,1)	(8,1)	(-40,1)	(3,1)	(-10,1)	(-15,1)	(-21,1)	(44,1)	(23,1)	(1,0)	
L2C 17>	(-16,2)	(1,13)	(24,1)	(-30,2)	(-2,1)	(-9,2)	(-12,1)	(-5,1)	(3,1)	(31,1)	(14,1)	(2,1)	(1,0)	(1,0)	(1,0)	(1,0)	
L2C 18>	(3,1)	(1,9)	(-20,1)	(-12,1)	(-8,1)	(5,2)	(-32,1)	(-1,1)	(24,2)	(10,1)	(9,1)	(-19,1)	(2,1)	(-17,1)	(1,0)	(1,0)	
L2C 19>	(1,12)	(9,2)	(-18,1)	(19,1)	(-26,1)	(17,1)	(-31,1)	(-8,1)	(-48,1)	(-1,3)	(34,1)	(5,1)	(-7,1)	(3,1)	(20,1)	(-22,1)	
L2C 20>	(-24,1)	(1,5)	(24,1)	(-7,1)	(-9,1)	(-6,1)	(-21,3)	(-5,1)	(10,1)	(34,1)	(2,1)	(4,1)	(3,1)	(-2,1)	(1,0)	(1,0)	
L2C 21>	(1,6)	(-37,1)	(9,2)	(-20,1)	(3,2)	(-35,1)	(-42,1)	(-30,1)	(-4,1)	(-6,1)	(-31,1)	(-2,1)	(-3,1)	(-1,1)	(-7,1)	(1,0)	
L2C 22>	(1,4)	(-59,1)	(28,1)	(25,1)	(3,2)	(19,1)	(2,2)	(6,1)	(-37,1)	(-4,1)	(-56,1)	(-47,1)	(-1,1)	(8,1)	(1,0)	(1,0)	
L2C 23>	(1,12)	(4,1)	(-52,2)	(32,1)	(-22,1)	(-46,2)	(-8,1)	(2,4)	(3,1)	(7,2)	(-25,1)	(5,1)	(-57,1)	(27,1)	(1,0)	(1,0)	
L2C 24>	(5,1)	(-3,1)	(1,4)	(-40,1)	(2,3)	(33,1)	(-11,1)	(-16,1)	(30,2)	(7,1)	(-17,1)	(-1,1)	(32,1)	(-8,1)	(-50,1)	(-56,1)	
L2C 25>	(1,3)	(4,1)	(6,1)	(30,1)	(-27,1)	(-26,2)	(-58,1)	(-51,1)	(-53,1)	(2,2)	(-16,1)	(23,1)	(-21,1)	(-18,1)	(-3,1)	(1,0)	
L2C 26>	(1,2)	(-8,1)	(9,1)	(30,2)	(34,1)	(-11,1)	(37,1)	(-27,1)	(2,1)	(8,1)	(25,1)	(-16,1)	(19,1)	(23,1)	(28,2)	(-2,1)	
L2C 27>	(2,2)	(-2,1)	(1,4)	(-32,2)	(-45,1)	(-8,1)	(-13,1)	(-31,1)	(-9,1)	(-33,1)	(-48,1)	(-6,1)	(3,1)	(8,1)	(1,0)	(1,0)	
L2C 28>	(2,3)	(3,1)	(4,1)	(-2,1)	(-29,1)	(-24,1)	(-7,1)	(-4,1)	(8,1)	(-44,1)	(-8,1)	(-52,1)	(-1,1)	(-27,1)	(1,2)	(-5,1)	
L2C 29>	(31,1)	(-25,1)	(-47,2)	(-3,1)	(14,1)	(25,1)	(1,3)	(-62,1)	(-27,1)	(-22,1)	(-56,1)	(-9,1)	(-24,1)	(1,0)	(1,0)	(1,0)	
L2C 30>	(-8,2)	(-29,1)	(-2,3)	(-54,1)	(-34,1)	(1,3)	(-9,1)	(-58,1)	(-4,1)	(21,1)	(-32,1)	(-7,1)	(-5,1)	(7,1)	(1,0)	(1,0)	
L2C 31>	(-11,1)	(2,1)	(7,1)	(-1,2)	(-35,1)	(-30,1)	(-8,1)	(-49,1)	(1,1)	(1,0)	(1,0)	(1,0)	(1,0)	(1,0)	(1,0)	(1,0)	
L2C 32>	(-50,1)	(15,2)	(1,2)	(3,2)	(-53,1)	(-15,1)	(-43,1)	(18,1)	(-10,1)	(-3,1)	(-6,1)	(-29,1)	(1,0)	(1,0)	(1,0)	(1,0)	
L2C 33>	(-24,1)	(1,2)	(7,1)	(9,1)	(-13,1)	(6,1)	(-53,1)	(25,1)	(3,1)	(-54,1)	(14,1)	(8,1)	(-42,1)	(-17,1)	(-47,1)	(-26,1)	
L2C 34>	(1,6)	(-33,1)	(-30,1)	(-28,1)	(-55,1)	(2,1)	(8,1)	(25,1)	(6,1)	(-32,1)	(-43,1)	(-3,1)	(-52,1)	(13,1)	(-21,1)	(1,0)	
L2C 35>	(-1,4)	(-6,1)	(1,1)	(-3,1)	(6,1)	(-33,1)	(23,1)	(-46,1)	(-15,1)	(-2,1)	(-13,1)	(1,0)	(1,0)	(1,0)	(1,0)	(1,0)	
L2C 36>	(-16,1)	(5,3)	(-44,2)	(9,1)	(1,2)	(-1,2)	(-32,1)	(-17,1)	(3,1)	(-50,1)	(-20,1)	(-12,1)	(2,1)	(-54,1)	(7,1)	(1,0)	
L2C 37>	(-44,1)	(-36,2)	(16,1)	(8,2)	(-6,2)	(12,1)	(-1,1)	(2,6)	(-46,1)	(7,2)	(1,3)	(3,1)	(-2,1)	(-38,1)	(-43,2)	(-45,1)	
L2C 38>	(-37,2)	(22,1)	(1,5)	(-58,2)	(-1,1)	(-34,1)	(-2,1)	(-50,1)	(-24,1)	(-44,1)	(14,1)	(1,0)	(1,0)	(1,0)	(1,0)	(1,0)	
L2C 39>	(-46,1)	(-1,2)	(-33,1)	(-2,1)	(1,3)	(-7,1)	(-41,1)	(2,2)	(-62,1)	(1,0)	(1,0)	(1,0)	(1,0)	(1,0)	(1,0)	(1,0)	
L2C 40>	(-14,1)	(-9,1)	(-21,1)	(1,6)	(6,1)	(-46,2)	(-49,1)	(2,1)	(9,1)	(-33,1)	(-43,1)	(-22,1)	(-47,1)	(1,0)	(1,0)	(1,0)	
L2C 41>	(1,2)	(2,1)	(14,1)	(3,1)	(-1,3)	(-37,2)	(-38,1)	(-44,1)	(-14,1)	(-62,3)	(5,1)	(-55,1)	(-47,2)	(-16,1)	(-6,1)	(-4,1)	
L2C 42>	(-1,1)	(1,1)	(-37,1)	(6,1)	(2,2)	(4,1)	(-45,1)	(1,0)	(1,0)	(1,0)	(1,0)	(1,0)	(1,0)	(1,0)	(1,0)	(1,0)	
L2C 43>	(1,2)	(3,1)	(-1,2)	(-39,1)	(4,1)	(-5,1)	(12,1)	(-7,1)	(-38,1)	(-11,1)	(5,1)	(-40,1)	(-3,1)	(13,1)	(1,0)	(1,0)	
L2C 44>	(15,1)	(1,6)	(-40,1)	(-55,1)	(-59,1)	(2,2)	(-12,1)	(-33,1)	(-7,1)	(-58,1)	(3,1)	(-62,1)	(-3,1)	(9,1)	(-53,1)	(1,0)	
L2C 45>	(-48,1)	(1,2)	(2,3)	(6,1)	(-3,2)	(-49,1)	(-2,1)	(-1,2)	(-50,1)	(-63,1)	(-41,1)	(-33,1)	(-35,3)	(11,1)	(-51,1)	(-46,2)	
L2C 46>	(1,6)	(-29,1)	(-35,1)	(-1,1)	(10,1)	(-58,1)	(3,1)	(-42,1)	(1,0)	(1,0)	(1,0)	(1,0)	(1,0)	(1,0)	(1,0)	(1,0)	
L2C 47>	(-49,1)	(-45,3)	(-53,1)	(-11,1)	(-35,1)	(-1,2)	(-30,1)	(-2,1)	(1,2)	(-25,1)	(-42,1)	(-41,1)	(8,1)	(6,1)	(-9,1)	(-19,1)	
L2C 48>	(1,5)	(-45,1)	(2,1)	(-59,1)	(-50,2)	(3,1)	(-1,2)	(5,2)	(-51,1)	(-2,1)	(-3,1)	(-31,1)	(-26,1)	(9,1)	(-47,1)	(-6,1)	
L2C 49>	(1,5)	(-63,1)	(11,1)	(-1,1)	(-10,2)	(-3,1)	(-27,1)	(2,2)	(-30,1)	(-59,1)	(-51,1)	(1,0)	(1,0)	(1,0)	(1,0)	(1,0)	
L2C 50>	(2,2)	(1,2)	(-1,2)	(-17,1)	(-11,1)	(-39,1)	(3,1)	(-21,1)	(-44,2)	(-37,1)	(-7,1)	(8,1)	(-47,1)	(-2,1)	(-41,1)	(-51,1)	
L2C 51>	(1,6)	(-50,4)	(-35,1)	(-40,1)	(-16,1)	(4,1)	(-5,1)	(-1,1)	(-4,1)	(-47,1)	(-48,1)	(-44,1)	(-2,1)	(-26,1)	(-52,2)	(-54,1)	
L2C 52>	(-2,1)	(1,5)	(-40,1)	(-46,2)	(-45,1)	(4,2)	(-3,1)	(-55,2)	(-51,2)	(-50,1)	(3,1)	(1,0)	(1,0)	(1,0)	(1,0)	(1,0)	
L2C 53>	(-61,1)	(10,2)	(-52,2)	(-28,1)	(-43,2)	(-5,1)	(5,1)	(1,3)	(-2,1)	(-44,1)	(3,1)	(2,1)	(-60,2)	(-4,1)	(-41,1)	(-49,1)	
L2C 54>	(1,6)	(-2,3)	(-53,1)	(-50,2)	(-1,2)	(-54,1)	(5,1)	(4,1)	(-48,2)	(9,1)	(1,0)	(1,0)	(1,0)	(1,0)	(1,0)	(1,0)	
L2C 55>	(-48,2)	(2,2)	(-34,1)	(-28,1)	(1,5)	(-49,1)	(-50,1)	(3,1)	(-56,2)	(-40,1)	(-57,2)	(-33,1)	(1,0)	(1,0)	(1,0)	(1,0)	
L2C 56>	(-55,1)	(2,1)	(-53,1)	(-57,1)	(-51,1)	(1,3)	(-41,1)	(1,0)	(1,0)	(1,0)	(1,0)	(1,0)	(1,0)	(1,0)	(1,0)	(1,0)	
L2C 57>	(-1,1)	(-46,3)	(1,5)	(-7,1)	(-3,2)	(-58,1)	(-48,1)	(-47,1)	(1,0)	(1,0)	(1,0)	(1,0)	(1,0)	(1,0)	(1,0)	(1,0)	
L2C 58>	(-61,1)	(-46,2)	(1,5)	(-9,1)	(3,1)	(-54,1)	(-16,1)	(-63,1)	(-57,1)	(-56,1)	(-13,1)	(-5,1)	(-36,1)	(-12,1)	(-1,1)	(1,0)	
L2C 59>	(1,3)	(-55,1)	(-57,1)	(-17,1)	(-58,1)	(-50,1)	(-2,1)	(-9,1)	(-56,1)	(2,1)	(-12,1)	(-6,1)	(-8,1)	(1,0)	(1,0)	(1,0)	
L2C 60>	(-26,1)	(-62,1)	(1,2)	(-9,1)	(-7,1)	(-59,1)	(-54,1)	(-2,1)	(-22,1)	(-58,1)	(1,0)	(1,0)	(1,0)	(1,0)	(1,0)	(1,0)	
L2C 61>	(2,2)	(1,2)	(-63,1)	(-10,1)	(-34,1)	(-55,2)	(0,1)	(1,0)	(1,0)	(1,0)	(1,0)	(1,0)	(1,0)	(1,0)	(1,0)	(1,0)	
L2C 62>	(-11,1)	(1,1)	(-7,1)	(-58,1)	(-10,1)	(-63,1)	(1,0)	(1,0)	(1,0)	(1,0)	(1,0)	(1,0)	(1,0)	(1,0)	(1,0)	(1,0)	
L2C 63>	(-63,1)	(-2,1)	(-11,1)	(-55,1)	(-18,1)	(-57,1)	(1,0)	(1,0)	(1,0)	(1,0)	(1,0)	(1,0)	(1,0)	(1,0)	(1,0)	(1,0)	

DRAM Statistics
 CHANNEL 0
 RQ ROW_BUFFER_HIT:       2358  ROW_BUFFER_MISS:        535
 DBUS_CONGESTED:       1454
 WQ ROW_BUFFER_HIT:          0  ROW_BUFFER_MISS:          0  FULL:          0

 AVG_CONGESTED_CYCLE: 6
