
*** ChampSim Multicore Out-of-Order Simulator ***

Warmup Instructions: 1000000
Simulation Instructions: 10000000
Number of CPUs: 1
LLC sets: 2048
LLC ways: 16
Off-chip DRAM Size: 4096 MB Channels: 1 Width: 64-bit Data Rate: 3200 MT/s

CPU 0 runs /home/aniket/Desktop/sem/cs622/cs622-project/champsim/dpc3_traces/657.xz_s-3167B.champsimtrace.xz
Ultra pref. initializing...
Ultra pref. initialized
Ultra pref. initializing...
Ultra pref. initialized

Warmup complete CPU 0 instructions: 1000003 cycles: 584339 (Simulation time: 0 hr 0 min 2 sec) 

Heartbeat CPU 0 instructions: 10000003 cycles: 12379092 heartbeat IPC: 0.807814 cumulative IPC: 0.763051 (Simulation time: 0 hr 0 min 18 sec) 
Finished CPU 0 instructions: 10000002 cycles: 12812695 cumulative IPC: 0.780476 (Simulation time: 0 hr 0 min 19 sec) 

CPU 0 Branch Prediction Accuracy: 93.1719% MPKI: 10.2238 Average ROB Occupancy at Mispredict: 87.4719

ChampSim completed all CPUs

Region of Interest Statistics

CPU 0 cumulative IPC: 0.780476 instructions: 10000002 cycles: 12812695
L1D TOTAL     ACCESS:    2474679  HIT:    2388990  MISS:      85689
L1D LOAD      ACCESS:    1118902  HIT:    1085295  MISS:      33607
L1D RFO       ACCESS:     611869  HIT:     599491  MISS:      12378
L1D PREFETCH  ACCESS:     743908  HIT:     704204  MISS:      39704
L1D WRITEBACK ACCESS:          0  HIT:          0  MISS:          0
L1D PREFETCH  REQUESTED:    6854247  ISSUED:    6461577  USEFUL:       6937  USELESS:      37133
L1D AVERAGE MISS LATENCY: 10078.3 cycles
L1I TOTAL     ACCESS:    1533541  HIT:    1533446  MISS:         95
L1I LOAD      ACCESS:    1533541  HIT:    1533446  MISS:         95
L1I RFO       ACCESS:          0  HIT:          0  MISS:          0
L1I PREFETCH  ACCESS:          0  HIT:          0  MISS:          0
L1I WRITEBACK ACCESS:          0  HIT:          0  MISS:          0
L1I PREFETCH  REQUESTED:          0  ISSUED:          0  USEFUL:          0  USELESS:          0
L1I AVERAGE MISS LATENCY: 100.137 cycles
L2C TOTAL     ACCESS:     438818  HIT:     297676  MISS:     141142
L2C LOAD      ACCESS:      33605  HIT:      19188  MISS:      14417
L2C RFO       ACCESS:      12350  HIT:       6879  MISS:       5471
L2C PREFETCH  ACCESS:     352547  HIT:     231598  MISS:     120949
L2C WRITEBACK ACCESS:      40316  HIT:      40011  MISS:        305
L2C PREFETCH  REQUESTED:     900416  ISSUED:     684106  USEFUL:       5905  USELESS:     121820
L2C AVERAGE MISS LATENCY: 160.693 cycles
LLC TOTAL     ACCESS:     160958  HIT:      67872  MISS:      93086
LLC LOAD      ACCESS:      14400  HIT:       5933  MISS:       8467
LLC RFO       ACCESS:       5467  HIT:       2776  MISS:       2691
LLC PREFETCH  ACCESS:     120966  HIT:      39418  MISS:      81548
LLC WRITEBACK ACCESS:      20125  HIT:      19745  MISS:        380
LLC PREFETCH  REQUESTED:          0  ISSUED:          0  USEFUL:       2280  USELESS:      65281
LLC AVERAGE MISS LATENCY: 194.929 cycles
Major fault: 0 Minor fault: 3710

L1D -512>	(79,1)	(48,1)	(-32,1)	(0,106)	(137,1)	(-131,1)	(13,1)	(-173,0)	(175,0)	(-130,0)	(11,0)	(1,9)	(-6,0)	(-108,1)	(115,0)	(-4,0)	
L1D -511>	(1,2)	(0,1)	(1,0)	(1,0)	(1,0)	(1,0)	(1,0)	(1,0)	(1,0)	(1,0)	(1,0)	(1,0)	(1,0)	(1,0)	(1,0)	(1,0)	
L1D -510>	(1,0)	(1,0)	(1,0)	(1,0)	(1,0)	(1,0)	(1,0)	(1,0)	(1,0)	(1,0)	(1,0)	(1,0)	(1,0)	(1,0)	(1,0)	(1,0)	
L1D -509>	(1,0)	(1,0)	(1,0)	(1,0)	(1,0)	(1,0)	(1,0)	(1,0)	(1,0)	(1,0)	(1,0)	(1,0)	(1,0)	(1,0)	(1,0)	(1,0)	
L1D -508>	(1,1)	(1,0)	(1,0)	(1,0)	(1,0)	(1,0)	(1,0)	(1,0)	(1,0)	(1,0)	(1,0)	(1,0)	(1,0)	(1,0)	(1,0)	(1,0)	
L1D -507>	(1,0)	(1,0)	(1,0)	(1,0)	(1,0)	(1,0)	(1,0)	(1,0)	(1,0)	(1,0)	(1,0)	(1,0)	(1,0)	(1,0)	(1,0)	(1,0)	
L1D -506>	(1,0)	(1,0)	(1,0)	(1,0)	(1,0)	(1,0)	(1,0)	(1,0)	(1,0)	(1,0)	(1,0)	(1,0)	(1,0)	(1,0)	(1,0)	(1,0)	
L1D -505>	(1,0)	(1,0)	(1,0)	(1,0)	(1,0)	(1,0)	(1,0)	(1,0)	(1,0)	(1,0)	(1,0)	(1,0)	(1,0)	(1,0)	(1,0)	(1,0)	
L1D -504>	(1,0)	(1,0)	(1,0)	(1,0)	(1,0)	(1,0)	(1,0)	(1,0)	(1,0)	(1,0)	(1,0)	(1,0)	(1,0)	(1,0)	(1,0)	(1,0)	
L1D -503>	(1,0)	(1,0)	(1,0)	(1,0)	(1,0)	(1,0)	(1,0)	(1,0)	(1,0)	(1,0)	(1,0)	(1,0)	(1,0)	(1,0)	(1,0)	(1,0)	
L1D -502>	(1,0)	(1,0)	(1,0)	(1,0)	(1,0)	(1,0)	(1,0)	(1,0)	(1,0)	(1,0)	(1,0)	(1,0)	(1,0)	(1,0)	(1,0)	(1,0)	
L1D -501>	(34,1)	(1,0)	(1,0)	(1,0)	(1,0)	(1,0)	(1,0)	(1,0)	(1,0)	(1,0)	(1,0)	(1,0)	(1,0)	(1,0)	(1,0)	(1,0)	
L1D -500>	(267,1)	(1,0)	(1,0)	(1,0)	(1,0)	(1,0)	(1,0)	(1,0)	(1,0)	(1,0)	(1,0)	(1,0)	(1,0)	(1,0)	(1,0)	(1,0)	
L1D -499>	(1,1)	(1,0)	(1,0)	(1,0)	(1,0)	(1,0)	(1,0)	(1,0)	(1,0)	(1,0)	(1,0)	(1,0)	(1,0)	(1,0)	(1,0)	(1,0)	
L1D -498>	(0,1)	(1,0)	(1,0)	(1,0)	(1,0)	(1,0)	(1,0)	(1,0)	(1,0)	(1,0)	(1,0)	(1,0)	(1,0)	(1,0)	(1,0)	(1,0)	
L1D -497>	(174,1)	(1,1)	(1,0)	(1,0)	(1,0)	(1,0)	(1,0)	(1,0)	(1,0)	(1,0)	(1,0)	(1,0)	(1,0)	(1,0)	(1,0)	(1,0)	
L1D -496>	(1,1)	(0,1)	(54,1)	(1,0)	(1,0)	(1,0)	(1,0)	(1,0)	(1,0)	(1,0)	(1,0)	(1,0)	(1,0)	(1,0)	(1,0)	(1,0)	
L1D -495>	(0,1)	(488,1)	(1,1)	(1,0)	(1,0)	(1,0)	(1,0)	(1,0)	(1,0)	(1,0)	(1,0)	(1,0)	(1,0)	(1,0)	(1,0)	(1,0)	
L1D -494>	(1,0)	(1,0)	(1,0)	(1,0)	(1,0)	(1,0)	(1,0)	(1,0)	(1,0)	(1,0)	(1,0)	(1,0)	(1,0)	(1,0)	(1,0)	(1,0)	
L1D -493>	(364,1)	(1,1)	(1,0)	(1,0)	(1,0)	(1,0)	(1,0)	(1,0)	(1,0)	(1,0)	(1,0)	(1,0)	(1,0)	(1,0)	(1,0)	(1,0)	
L1D -492>	(0,1)	(1,0)	(1,0)	(1,0)	(1,0)	(1,0)	(1,0)	(1,0)	(1,0)	(1,0)	(1,0)	(1,0)	(1,0)	(1,0)	(1,0)	(1,0)	
L1D -491>	(491,1)	(1,0)	(1,0)	(1,0)	(1,0)	(1,0)	(1,0)	(1,0)	(1,0)	(1,0)	(1,0)	(1,0)	(1,0)	(1,0)	(1,0)	(1,0)	
L1D -490>	(239,1)	(0,6)	(486,1)	(1,1)	(-1,2)	(1,0)	(1,0)	(1,0)	(1,0)	(1,0)	(1,0)	(1,0)	(1,0)	(1,0)	(1,0)	(1,0)	
L1D -489>	(196,1)	(179,1)	(-1,1)	(-2,1)	(490,1)	(1,1)	(1,0)	(1,0)	(1,0)	(1,0)	(1,0)	(1,0)	(1,0)	(1,0)	(1,0)	(1,0)	
L1D -488>	(1,0)	(1,0)	(1,0)	(1,0)	(1,0)	(1,0)	(1,0)	(1,0)	(1,0)	(1,0)	(1,0)	(1,0)	(1,0)	(1,0)	(1,0)	(1,0)	
L1D -487>	(1,3)	(487,1)	(1,0)	(1,0)	(1,0)	(1,0)	(1,0)	(1,0)	(1,0)	(1,0)	(1,0)	(1,0)	(1,0)	(1,0)	(1,0)	(1,0)	
L1D -486>	(248,1)	(0,4)	(1,2)	(487,9)	(486,17)	(484,1)	(485,1)	(1,0)	(1,0)	(1,0)	(1,0)	(1,0)	(1,0)	(1,0)	(1,0)	(1,0)	
L1D -485>	(64,2)	(486,3)	(1,0)	(1,0)	(1,0)	(1,0)	(1,0)	(1,0)	(1,0)	(1,0)	(1,0)	(1,0)	(1,0)	(1,0)	(1,0)	(1,0)	
L1D -484>	(0,1)	(1,0)	(1,0)	(1,0)	(1,0)	(1,0)	(1,0)	(1,0)	(1,0)	(1,0)	(1,0)	(1,0)	(1,0)	(1,0)	(1,0)	(1,0)	
L1D -483>	(64,1)	(1,0)	(1,0)	(1,0)	(1,0)	(1,0)	(1,0)	(1,0)	(1,0)	(1,0)	(1,0)	(1,0)	(1,0)	(1,0)	(1,0)	(1,0)	
L1D -482>	(1,1)	(0,1)	(1,0)	(1,0)	(1,0)	(1,0)	(1,0)	(1,0)	(1,0)	(1,0)	(1,0)	(1,0)	(1,0)	(1,0)	(1,0)	(1,0)	
L1D -481>	(479,1)	(34,1)	(1,2)	(330,1)	(0,1)	(1,0)	(1,0)	(1,0)	(1,0)	(1,0)	(1,0)	(1,0)	(1,0)	(1,0)	(1,0)	(1,0)	
L1D -480>	(485,1)	(480,1)	(1,0)	(1,0)	(1,0)	(1,0)	(1,0)	(1,0)	(1,0)	(1,0)	(1,0)	(1,0)	(1,0)	(1,0)	(1,0)	(1,0)	
L1D -479>	(64,1)	(0,1)	(1,0)	(1,0)	(1,0)	(1,0)	(1,0)	(1,0)	(1,0)	(1,0)	(1,0)	(1,0)	(1,0)	(1,0)	(1,0)	(1,0)	
L1D -478>	(478,9)	(479,2)	(1,0)	(1,0)	(1,0)	(1,0)	(1,0)	(1,0)	(1,0)	(1,0)	(1,0)	(1,0)	(1,0)	(1,0)	(1,0)	(1,0)	
L1D -477>	(104,1)	(1,1)	(478,1)	(1,0)	(1,0)	(1,0)	(1,0)	(1,0)	(1,0)	(1,0)	(1,0)	(1,0)	(1,0)	(1,0)	(1,0)	(1,0)	
L1D -476>	(276,1)	(140,1)	(272,1)	(476,5)	(1,0)	(1,0)	(1,0)	(1,0)	(1,0)	(1,0)	(1,0)	(1,0)	(1,0)	(1,0)	(1,0)	(1,0)	
L1D -475>	(0,2)	(245,1)	(-1,4)	(475,1)	(1,0)	(1,0)	(1,0)	(1,0)	(1,0)	(1,0)	(1,0)	(1,0)	(1,0)	(1,0)	(1,0)	(1,0)	
L1D -474>	(474,1)	(0,1)	(-34,1)	(-19,1)	(1,0)	(1,0)	(1,0)	(1,0)	(1,0)	(1,0)	(1,0)	(1,0)	(1,0)	(1,0)	(1,0)	(1,0)	
L1D -473>	(64,1)	(1,3)	(67,1)	(-1,1)	(473,1)	(-34,1)	(1,0)	(1,0)	(1,0)	(1,0)	(1,0)	(1,0)	(1,0)	(1,0)	(1,0)	(1,0)	
L1D -472>	(477,1)	(180,1)	(7,1)	(221,4)	(-1,1)	(472,2)	(1,1)	(1,0)	(1,0)	(1,0)	(1,0)	(1,0)	(1,0)	(1,0)	(1,0)	(1,0)	
L1D -471>	(-1,1)	(1,3)	(471,1)	(0,1)	(470,1)	(1,0)	(1,0)	(1,0)	(1,0)	(1,0)	(1,0)	(1,0)	(1,0)	(1,0)	(1,0)	(1,0)	
L1D -470>	(1,3)	(477,1)	(75,1)	(-25,1)	(-1,1)	(471,2)	(470,7)	(-12,2)	(0,2)	(2,1)	(486,1)	(222,1)	(1,0)	(1,0)	(1,0)	(1,0)	
L1D -469>	(0,3)	(-1,1)	(1,1)	(165,1)	(470,7)	(469,1)	(1,0)	(1,0)	(1,0)	(1,0)	(1,0)	(1,0)	(1,0)	(1,0)	(1,0)	(1,0)	
L1D -468>	(469,3)	(1,1)	(372,2)	(100,1)	(-1,1)	(1,0)	(1,0)	(1,0)	(1,0)	(1,0)	(1,0)	(1,0)	(1,0)	(1,0)	(1,0)	(1,0)	
L1D -467>	(473,1)	(1,2)	(454,2)	(467,1)	(459,1)	(453,1)	(299,1)	(0,1)	(1,0)	(1,0)	(1,0)	(1,0)	(1,0)	(1,0)	(1,0)	(1,0)	
L1D -466>	(0,2)	(227,1)	(1,2)	(467,3)	(1,0)	(1,0)	(1,0)	(1,0)	(1,0)	(1,0)	(1,0)	(1,0)	(1,0)	(1,0)	(1,0)	(1,0)	
L1D -465>	(469,1)	(454,1)	(1,2)	(1,0)	(1,0)	(1,0)	(1,0)	(1,0)	(1,0)	(1,0)	(1,0)	(1,0)	(1,0)	(1,0)	(1,0)	(1,0)	
L1D -464>	(-3,1)	(1,1)	(-17,1)	(1,0)	(1,0)	(1,0)	(1,0)	(1,0)	(1,0)	(1,0)	(1,0)	(1,0)	(1,0)	(1,0)	(1,0)	(1,0)	
L1D -463>	(0,1)	(1,1)	(1,0)	(1,0)	(1,0)	(1,0)	(1,0)	(1,0)	(1,0)	(1,0)	(1,0)	(1,0)	(1,0)	(1,0)	(1,0)	(1,0)	
L1D -462>	(399,1)	(0,2)	(256,1)	(-42,1)	(1,0)	(1,0)	(1,0)	(1,0)	(1,0)	(1,0)	(1,0)	(1,0)	(1,0)	(1,0)	(1,0)	(1,0)	
L1D -461>	(0,1)	(461,1)	(1,0)	(1,0)	(1,0)	(1,0)	(1,0)	(1,0)	(1,0)	(1,0)	(1,0)	(1,0)	(1,0)	(1,0)	(1,0)	(1,0)	
L1D -460>	(0,4)	(378,1)	(285,1)	(332,1)	(460,1)	(458,1)	(1,0)	(1,0)	(1,0)	(1,0)	(1,0)	(1,0)	(1,0)	(1,0)	(1,0)	(1,0)	
L1D -459>	(0,3)	(445,1)	(444,1)	(425,1)	(459,4)	(1,0)	(1,0)	(1,0)	(1,0)	(1,0)	(1,0)	(1,0)	(1,0)	(1,0)	(1,0)	(1,0)	
L1D -458>	(0,3)	(-13,1)	(440,1)	(458,6)	(1,5)	(1,0)	(1,0)	(1,0)	(1,0)	(1,0)	(1,0)	(1,0)	(1,0)	(1,0)	(1,0)	(1,0)	
L1D -457>	(1,4)	(444,1)	(0,6)	(331,1)	(457,29)	(453,1)	(458,3)	(455,2)	(456,1)	(1,0)	(1,0)	(1,0)	(1,0)	(1,0)	(1,0)	(1,0)	
L1D -456>	(141,1)	(379,1)	(0,1)	(457,12)	(298,1)	(453,1)	(456,1)	(1,1)	(1,0)	(1,0)	(1,0)	(1,0)	(1,0)	(1,0)	(1,0)	(1,0)	
L1D -455>	(460,2)	(441,2)	(138,1)	(440,1)	(455,2)	(442,2)	(449,1)	(444,1)	(28,1)	(199,1)	(1,0)	(1,0)	(1,0)	(1,0)	(1,0)	(1,0)	
L1D -454>	(254,1)	(355,1)	(-29,1)	(290,1)	(2,1)	(454,1)	(455,1)	(1,1)	(1,0)	(1,0)	(1,0)	(1,0)	(1,0)	(1,0)	(1,0)	(1,0)	
L1D -453>	(330,1)	(450,1)	(212,1)	(153,1)	(442,1)	(0,6)	(245,1)	(1,0)	(1,0)	(1,0)	(1,0)	(1,0)	(1,0)	(1,0)	(1,0)	(1,0)	
L1D -452>	(-3,1)	(364,1)	(0,1)	(1,1)	(1,0)	(1,0)	(1,0)	(1,0)	(1,0)	(1,0)	(1,0)	(1,0)	(1,0)	(1,0)	(1,0)	(1,0)	
L1D -451>	(1,1)	(364,1)	(451,1)	(1,0)	(1,0)	(1,0)	(1,0)	(1,0)	(1,0)	(1,0)	(1,0)	(1,0)	(1,0)	(1,0)	(1,0)	(1,0)	
L1D -450>	(455,2)	(64,1)	(0,3)	(1,3)	(-10,4)	(451,1)	(1,0)	(1,0)	(1,0)	(1,0)	(1,0)	(1,0)	(1,0)	(1,0)	(1,0)	(1,0)	
L1D -449>	(0,1)	(1,1)	(1,0)	(1,0)	(1,0)	(1,0)	(1,0)	(1,0)	(1,0)	(1,0)	(1,0)	(1,0)	(1,0)	(1,0)	(1,0)	(1,0)	
L1D -448>	(449,1)	(0,1)	(1,1)	(432,2)	(1,0)	(1,0)	(1,0)	(1,0)	(1,0)	(1,0)	(1,0)	(1,0)	(1,0)	(1,0)	(1,0)	(1,0)	
L1D -447>	(64,2)	(381,1)	(0,1)	(444,1)	(447,2)	(1,0)	(1,0)	(1,0)	(1,0)	(1,0)	(1,0)	(1,0)	(1,0)	(1,0)	(1,0)	(1,0)	
L1D -446>	(-9,1)	(443,1)	(-12,1)	(0,2)	(1,0)	(1,0)	(1,0)	(1,0)	(1,0)	(1,0)	(1,0)	(1,0)	(1,0)	(1,0)	(1,0)	(1,0)	
L1D -445>	(436,1)	(64,1)	(414,1)	(0,1)	(129,1)	(-47,1)	(2,1)	(1,1)	(1,0)	(1,0)	(1,0)	(1,0)	(1,0)	(1,0)	(1,0)	(1,0)	
L1D -444>	(64,2)	(-49,1)	(412,1)	(66,1)	(449,1)	(194,2)	(444,2)	(1,3)	(71,1)	(1,0)	(1,0)	(1,0)	(1,0)	(1,0)	(1,0)	(1,0)	
L1D -443>	(250,1)	(0,3)	(438,1)	(1,1)	(-28,1)	(1,0)	(1,0)	(1,0)	(1,0)	(1,0)	(1,0)	(1,0)	(1,0)	(1,0)	(1,0)	(1,0)	
L1D -442>	(64,1)	(181,1)	(442,1)	(1,1)	(1,0)	(1,0)	(1,0)	(1,0)	(1,0)	(1,0)	(1,0)	(1,0)	(1,0)	(1,0)	(1,0)	(1,0)	
L1D -441>	(441,4)	(0,4)	(439,1)	(438,1)	(3,1)	(1,1)	(1,0)	(1,0)	(1,0)	(1,0)	(1,0)	(1,0)	(1,0)	(1,0)	(1,0)	(1,0)	
L1D -440>	(0,3)	(64,1)	(440,1)	(38,1)	(305,1)	(417,1)	(1,0)	(1,0)	(1,0)	(1,0)	(1,0)	(1,0)	(1,0)	(1,0)	(1,0)	(1,0)	
L1D -439>	(251,1)	(64,1)	(444,1)	(427,1)	(1,2)	(439,2)	(267,1)	(356,1)	(0,1)	(1,0)	(1,0)	(1,0)	(1,0)	(1,0)	(1,0)	(1,0)	
L1D -438>	(64,1)	(400,1)	(0,2)	(168,1)	(426,1)	(348,1)	(1,0)	(1,0)	(1,0)	(1,0)	(1,0)	(1,0)	(1,0)	(1,0)	(1,0)	(1,0)	
L1D -437>	(0,2)	(438,5)	(1,4)	(452,1)	(369,1)	(437,2)	(-31,1)	(-20,1)	(1,0)	(1,0)	(1,0)	(1,0)	(1,0)	(1,0)	(1,0)	(1,0)	
L1D -436>	(1,5)	(0,3)	(436,23)	(5,1)	(435,3)	(434,1)	(4,1)	(85,1)	(437,8)	(1,0)	(1,0)	(1,0)	(1,0)	(1,0)	(1,0)	(1,0)	
L1D -435>	(467,1)	(1,1)	(32,1)	(125,1)	(436,4)	(435,2)	(0,2)	(1,0)	(1,0)	(1,0)	(1,0)	(1,0)	(1,0)	(1,0)	(1,0)	(1,0)	
L1D -434>	(0,2)	(-35,1)	(1,1)	(95,1)	(260,1)	(1,0)	(1,0)	(1,0)	(1,0)	(1,0)	(1,0)	(1,0)	(1,0)	(1,0)	(1,0)	(1,0)	
L1D -433>	(433,1)	(0,2)	(426,1)	(439,1)	(1,1)	(-23,1)	(424,1)	(367,1)	(408,1)	(1,0)	(1,0)	(1,0)	(1,0)	(1,0)	(1,0)	(1,0)	
L1D -432>	(0,2)	(1,2)	(131,1)	(150,1)	(1,0)	(1,0)	(1,0)	(1,0)	(1,0)	(1,0)	(1,0)	(1,0)	(1,0)	(1,0)	(1,0)	(1,0)	
L1D -431>	(5,1)	(0,2)	(45,1)	(436,1)	(412,1)	(257,1)	(12,1)	(432,1)	(299,1)	(431,2)	(1,0)	(1,0)	(1,0)	(1,0)	(1,0)	(1,0)	
L1D -430>	(436,1)	(1,4)	(260,1)	(154,1)	(-56,1)	(431,2)	(439,1)	(265,1)	(0,2)	(428,1)	(1,0)	(1,0)	(1,0)	(1,0)	(1,0)	(1,0)	
L1D -429>	(0,3)	(-10,1)	(152,1)	(-51,1)	(429,13)	(1,1)	(427,1)	(2,1)	(1,0)	(1,0)	(1,0)	(1,0)	(1,0)	(1,0)	(1,0)	(1,0)	
L1D -428>	(64,1)	(0,2)	(-15,1)	(1,2)	(291,1)	(428,9)	(429,12)	(427,7)	(426,1)	(1,0)	(1,0)	(1,0)	(1,0)	(1,0)	(1,0)	(1,0)	
L1D -427>	(427,3)	(384,1)	(0,1)	(433,1)	(8,3)	(-53,1)	(428,6)	(1,1)	(-46,1)	(-43,1)	(217,1)	(128,1)	(130,1)	(400,1)	(1,0)	(1,0)	
L1D -426>	(1,1)	(426,1)	(172,1)	(0,2)	(382,1)	(-6,1)	(200,1)	(1,0)	(1,0)	(1,0)	(1,0)	(1,0)	(1,0)	(1,0)	(1,0)	(1,0)	
L1D -425>	(431,2)	(-7,1)	(1,2)	(0,2)	(425,3)	(1,0)	(1,0)	(1,0)	(1,0)	(1,0)	(1,0)	(1,0)	(1,0)	(1,0)	(1,0)	(1,0)	
L1D -424>	(415,1)	(-14,1)	(246,1)	(177,1)	(0,1)	(1,2)	(297,1)	(53,1)	(1,0)	(1,0)	(1,0)	(1,0)	(1,0)	(1,0)	(1,0)	(1,0)	
L1D -423>	(207,1)	(169,1)	(405,1)	(423,6)	(235,1)	(300,1)	(1,3)	(-47,1)	(1,0)	(1,0)	(1,0)	(1,0)	(1,0)	(1,0)	(1,0)	(1,0)	
L1D -422>	(427,1)	(64,1)	(218,1)	(359,1)	(-74,1)	(422,2)	(-59,1)	(372,1)	(34,1)	(0,2)	(1,0)	(1,0)	(1,0)	(1,0)	(1,0)	(1,0)	
L1D -421>	(-38,1)	(125,1)	(164,2)	(259,1)	(90,1)	(1,2)	(134,1)	(422,3)	(420,1)	(421,5)	(1,0)	(1,0)	(1,0)	(1,0)	(1,0)	(1,0)	
L1D -420>	(425,1)	(289,1)	(45,1)	(420,2)	(361,1)	(96,1)	(277,1)	(1,2)	(0,4)	(-57,1)	(1,0)	(1,0)	(1,0)	(1,0)	(1,0)	(1,0)	
L1D -419>	(417,1)	(270,1)	(384,1)	(419,2)	(0,2)	(420,1)	(1,0)	(1,0)	(1,0)	(1,0)	(1,0)	(1,0)	(1,0)	(1,0)	(1,0)	(1,0)	
L1D -418>	(0,2)	(73,1)	(106,1)	(-65,1)	(418,18)	(-14,1)	(24,1)	(1,4)	(464,7)	(419,3)	(417,1)	(1,0)	(1,0)	(1,0)	(1,0)	(1,0)	
L1D -417>	(-17,1)	(0,4)	(404,1)	(417,3)	(-24,1)	(333,1)	(60,1)	(418,8)	(1,1)	(416,2)	(293,1)	(1,0)	(1,0)	(1,0)	(1,0)	(1,0)	
L1D -416>	(339,1)	(422,1)	(376,1)	(0,1)	(416,7)	(421,1)	(405,1)	(1,1)	(418,1)	(415,1)	(417,3)	(29,1)	(332,1)	(290,1)	(465,1)	(373,1)	
L1D -415>	(415,4)	(130,1)	(64,1)	(421,1)	(83,1)	(-1,1)	(0,2)	(1,2)	(-21,1)	(-43,1)	(1,0)	(1,0)	(1,0)	(1,0)	(1,0)	(1,0)	
L1D -414>	(392,1)	(354,1)	(0,4)	(415,1)	(416,1)	(1,4)	(-39,1)	(412,2)	(414,7)	(1,0)	(1,0)	(1,0)	(1,0)	(1,0)	(1,0)	(1,0)	
L1D -413>	(418,1)	(180,1)	(0,3)	(290,1)	(-50,1)	(222,1)	(369,1)	(41,1)	(414,9)	(412,1)	(1,0)	(1,0)	(1,0)	(1,0)	(1,0)	(1,0)	
L1D -412>	(298,1)	(0,7)	(285,1)	(1,9)	(423,1)	(413,13)	(71,1)	(7,1)	(2,1)	(-1,2)	(1,0)	(1,0)	(1,0)	(1,0)	(1,0)	(1,0)	
L1D -411>	(332,1)	(0,3)	(114,1)	(1,1)	(-100,1)	(18,1)	(409,1)	(411,8)	(1,0)	(1,0)	(1,0)	(1,0)	(1,0)	(1,0)	(1,0)	(1,0)	
L1D -410>	(1,6)	(23,1)	(385,1)	(64,1)	(78,1)	(110,1)	(246,1)	(0,1)	(410,1)	(1,0)	(1,0)	(1,0)	(1,0)	(1,0)	(1,0)	(1,0)	
L1D -409>	(414,1)	(1,11)	(0,7)	(-1,1)	(67,1)	(137,2)	(3,1)	(139,1)	(351,1)	(289,1)	(173,3)	(64,1)	(403,1)	(409,3)	(297,1)	(408,1)	
L1D -408>	(1,9)	(0,10)	(-1,5)	(293,1)	(410,1)	(139,1)	(245,1)	(65,1)	(221,1)	(93,1)	(13,1)	(409,1)	(1,0)	(1,0)	(1,0)	(1,0)	
L1D -407>	(0,6)	(-1,10)	(408,3)	(410,1)	(262,1)	(375,1)	(138,1)	(1,4)	(406,1)	(407,1)	(197,1)	(1,0)	(1,0)	(1,0)	(1,0)	(1,0)	
L1D -406>	(93,1)	(-17,1)	(383,1)	(245,1)	(1,2)	(-37,1)	(406,3)	(324,1)	(0,5)	(370,1)	(407,1)	(405,1)	(357,1)	(1,0)	(1,0)	(1,0)	
L1D -405>	(1,3)	(0,3)	(-80,1)	(-68,1)	(308,1)	(84,1)	(64,2)	(406,8)	(405,4)	(99,1)	(404,1)	(1,0)	(1,0)	(1,0)	(1,0)	(1,0)	
L1D -404>	(410,1)	(0,3)	(1,3)	(25,1)	(367,1)	(362,1)	(404,13)	(405,4)	(403,1)	(1,0)	(1,0)	(1,0)	(1,0)	(1,0)	(1,0)	(1,0)	
L1D -403>	(441,1)	(-20,1)	(371,1)	(403,2)	(402,1)	(404,2)	(1,1)	(1,0)	(1,0)	(1,0)	(1,0)	(1,0)	(1,0)	(1,0)	(1,0)	(1,0)	
L1D -402>	(401,2)	(1,4)	(77,1)	(0,2)	(10,1)	(333,1)	(-60,1)	(366,1)	(403,10)	(304,1)	(297,1)	(416,1)	(408,1)	(402,2)	(406,1)	(205,1)	
L1D -401>	(-17,1)	(396,1)	(423,1)	(411,1)	(1,2)	(368,1)	(120,1)	(0,1)	(272,1)	(402,2)	(401,3)	(1,0)	(1,0)	(1,0)	(1,0)	(1,0)	
L1D -400>	(288,1)	(338,1)	(64,1)	(1,3)	(400,5)	(303,1)	(135,1)	(401,3)	(399,1)	(0,3)	(1,0)	(1,0)	(1,0)	(1,0)	(1,0)	(1,0)	
L1D -399>	(375,1)	(1,5)	(404,1)	(64,1)	(-53,1)	(384,1)	(0,1)	(413,1)	(371,1)	(398,1)	(-33,1)	(400,3)	(1,0)	(1,0)	(1,0)	(1,0)	
L1D -398>	(2,10)	(1,10)	(392,1)	(0,6)	(398,11)	(-87,1)	(-65,1)	(399,5)	(-5,1)	(-18,1)	(143,1)	(302,1)	(348,1)	(-80,2)	(1,0)	(1,0)	
L1D -397>	(1,44)	(2,6)	(403,1)	(0,12)	(-2,1)	(-30,1)	(-35,1)	(324,1)	(13,1)	(-7,1)	(374,1)	(398,8)	(397,9)	(156,1)	(144,1)	(1,0)	
L1D -396>	(1,110)	(402,2)	(0,15)	(395,22)	(396,11)	(386,3)	(390,8)	(2,1)	(378,1)	(141,2)	(397,3)	(388,1)	(236,1)	(257,2)	(65,1)	(144,1)	
L1D -395>	(1,21)	(0,12)	(395,30)	(-1,6)	(396,9)	(-22,1)	(-2,1)	(380,1)	(390,3)	(236,8)	(257,5)	(20,1)	(363,1)	(388,1)	(386,1)	(368,1)	
L1D -394>	(1,3)	(399,1)	(64,1)	(394,10)	(233,1)	(257,1)	(-40,1)	(0,5)	(26,1)	(-20,1)	(226,1)	(248,1)	(395,6)	(281,1)	(322,1)	(277,1)	
L1D -393>	(394,1)	(0,3)	(1,4)	(173,1)	(79,1)	(393,2)	(-22,1)	(249,1)	(365,1)	(422,1)	(338,1)	(44,1)	(1,0)	(1,0)	(1,0)	(1,0)	
L1D -392>	(1,8)	(64,1)	(0,2)	(390,1)	(2,1)	(-43,1)	(-30,1)	(212,1)	(392,3)	(391,1)	(9,1)	(435,1)	(-79,1)	(137,1)	(1,0)	(1,0)	
L1D -391>	(0,20)	(391,5)	(-101,1)	(1,49)	(397,1)	(-1,2)	(-7,1)	(336,1)	(269,1)	(235,1)	(390,1)	(-91,1)	(407,1)	(379,1)	(113,1)	(392,14)	
L1D -390>	(390,10)	(389,3)	(-27,1)	(1,10)	(0,7)	(395,15)	(388,1)	(396,7)	(-1,3)	(320,1)	(236,9)	(257,5)	(358,1)	(346,1)	(342,1)	(-23,1)	
L1D -389>	(389,7)	(394,1)	(356,1)	(0,1)	(1,2)	(329,1)	(447,1)	(1,0)	(1,0)	(1,0)	(1,0)	(1,0)	(1,0)	(1,0)	(1,0)	(1,0)	
L1D -388>	(0,4)	(395,8)	(387,1)	(2,9)	(388,8)	(72,1)	(371,4)	(354,1)	(396,8)	(398,2)	(29,1)	(386,1)	(-36,1)	(-97,1)	(318,1)	(393,1)	
L1D -387>	(2,21)	(0,2)	(3,1)	(387,4)	(-33,1)	(388,5)	(-74,1)	(278,1)	(169,1)	(397,3)	(375,1)	(-21,1)	(-107,1)	(1,1)	(386,1)	(393,1)	
L1D -386>	(1,30)	(269,1)	(395,68)	(0,57)	(-1,5)	(396,49)	(-2,5)	(388,3)	(386,3)	(397,6)	(385,1)	(64,1)	(390,4)	(236,1)	(340,1)	(257,1)	
L1D -385>	(1,104)	(395,43)	(0,46)	(-2,3)	(388,3)	(396,24)	(390,8)	(386,3)	(418,2)	(385,19)	(24,1)	(397,2)	(-1,3)	(-96,1)	(403,1)	(233,1)	
L1D -384>	(384,25)	(-35,1)	(385,15)	(0,12)	(382,1)	(38,1)	(273,1)	(404,2)	(86,1)	(383,2)	(314,1)	(27,1)	(214,1)	(1,3)	(-38,1)	(286,1)	
L1D -383>	(382,3)	(0,4)	(389,1)	(384,4)	(197,1)	(243,1)	(119,1)	(321,1)	(64,2)	(-16,1)	(58,1)	(208,1)	(1,1)	(383,3)	(226,1)	(77,1)	
L1D -382>	(382,3)	(422,1)	(0,4)	(388,1)	(95,1)	(366,1)	(-42,1)	(383,1)	(1,6)	(-74,1)	(351,1)	(-49,2)	(243,1)	(368,1)	(72,1)	(210,1)	
L1D -381>	(0,3)	(134,1)	(316,1)	(282,1)	(111,1)	(1,9)	(381,21)	(380,2)	(342,1)	(226,1)	(310,1)	(353,1)	(382,2)	(397,1)	(1,0)	(1,0)	
L1D -380>	(0,15)	(1,10)	(378,2)	(185,1)	(-93,1)	(64,1)	(408,1)	(370,2)	(381,10)	(379,5)	(380,16)	(199,1)	(244,1)	(383,1)	(297,1)	(-72,2)	
L1D -379>	(1,3)	(380,22)	(278,1)	(341,1)	(249,1)	(208,1)	(180,1)	(378,1)	(0,2)	(226,1)	(-52,1)	(332,1)	(264,1)	(356,1)	(376,1)	(48,1)	
L1D -378>	(378,2)	(0,4)	(343,1)	(-59,1)	(303,1)	(1,4)	(263,1)	(-7,1)	(-47,1)	(-58,1)	(1,0)	(1,0)	(1,0)	(1,0)	(1,0)	(1,0)	
L1D -377>	(377,17)	(382,2)	(376,1)	(1,9)	(385,2)	(345,1)	(293,2)	(-31,1)	(329,1)	(416,1)	(0,4)	(378,3)	(347,1)	(325,1)	(391,1)	(320,1)	
L1D -376>	(1,3)	(376,13)	(224,1)	(368,1)	(-86,1)	(322,1)	(332,1)	(279,1)	(0,9)	(212,1)	(35,1)	(180,1)	(377,10)	(375,2)	(452,1)	(-7,1)	
L1D -375>	(323,1)	(374,4)	(139,1)	(1,4)	(407,1)	(-26,1)	(380,1)	(0,13)	(-66,1)	(431,1)	(250,1)	(367,2)	(-65,1)	(375,16)	(376,1)	(298,1)	
L1D -374>	(374,13)	(1,5)	(375,8)	(0,4)	(474,1)	(407,1)	(86,1)	(324,1)	(121,1)	(195,1)	(385,1)	(424,3)	(425,1)	(211,1)	(-18,1)	(248,1)	
L1D -373>	(231,1)	(302,1)	(373,6)	(378,1)	(0,1)	(-12,1)	(1,4)	(-56,1)	(363,1)	(162,1)	(147,1)	(295,1)	(2,1)	(1,0)	(1,0)	(1,0)	
L1D -372>	(369,1)	(371,4)	(372,27)	(0,12)	(373,4)	(64,1)	(454,1)	(-110,1)	(410,1)	(-29,1)	(1,13)	(224,1)	(203,1)	(151,1)	(-68,1)	(1,0)	
L1D -371>	(1,2)	(353,1)	(298,1)	(40,1)	(-60,1)	(376,2)	(0,5)	(-33,1)	(163,1)	(5,2)	(372,14)	(-66,1)	(293,1)	(365,1)	(371,10)	(370,1)	
L1D -370>	(1,4)	(381,1)	(370,4)	(360,3)	(399,1)	(-1,1)	(349,1)	(289,1)	(242,1)	(-87,1)	(-76,1)	(2,1)	(229,1)	(-4,2)	(369,4)	(0,1)	
L1D -369>	(0,13)	(369,11)	(360,5)	(94,1)	(370,2)	(374,1)	(276,1)	(405,1)	(291,1)	(357,1)	(320,1)	(287,1)	(28,1)	(2,1)	(283,1)	(-1,1)	
L1D -368>	(1,5)	(374,1)	(370,1)	(368,3)	(377,1)	(-2,1)	(5,1)	(-59,1)	(306,1)	(-31,1)	(273,1)	(2,1)	(0,1)	(1,0)	(1,0)	(1,0)	
L1D -367>	(14,1)	(368,6)	(372,3)	(0,6)	(369,1)	(357,1)	(-80,1)	(1,3)	(360,1)	(347,1)	(341,1)	(367,2)	(399,1)	(-17,1)	(1,0)	(1,0)	
L1D -366>	(1,1)	(0,4)	(370,1)	(124,1)	(227,1)	(376,1)	(323,1)	(267,1)	(269,1)	(366,3)	(25,1)	(198,1)	(-74,1)	(365,1)	(398,1)	(1,0)	
L1D -365>	(0,3)	(380,1)	(115,1)	(248,1)	(321,2)	(356,1)	(1,5)	(69,1)	(387,1)	(-1,1)	(366,1)	(254,1)	(-29,1)	(367,1)	(-58,1)	(365,7)	
L1D -364>	(0,5)	(64,1)	(370,1)	(204,1)	(1,1)	(237,1)	(414,1)	(146,1)	(374,1)	(249,1)	(364,4)	(-40,1)	(365,7)	(248,1)	(1,0)	(1,0)	
L1D -363>	(362,2)	(369,2)	(368,3)	(1,5)	(-21,1)	(-67,1)	(26,1)	(224,1)	(0,3)	(-24,2)	(297,1)	(363,3)	(326,1)	(438,1)	(-16,1)	(78,1)	
L1D -362>	(0,4)	(1,3)	(316,1)	(28,1)	(283,1)	(278,1)	(351,1)	(362,11)	(-27,1)	(-48,1)	(161,1)	(-9,1)	(236,1)	(363,3)	(361,1)	(18,1)	
L1D -361>	(361,6)	(360,1)	(1,3)	(64,1)	(0,6)	(24,2)	(346,1)	(387,1)	(21,1)	(347,1)	(-14,1)	(49,1)	(-16,2)	(467,1)	(289,1)	(369,1)	
L1D -360>	(423,1)	(361,2)	(265,1)	(203,1)	(-102,1)	(414,1)	(345,1)	(308,1)	(1,2)	(403,1)	(-74,1)	(-94,1)	(382,1)	(1,0)	(1,0)	(1,0)	
L1D -359>	(335,1)	(-20,1)	(366,1)	(0,3)	(364,1)	(361,1)	(1,9)	(360,16)	(3,1)	(152,1)	(-69,1)	(-28,1)	(384,1)	(1,0)	(1,0)	(1,0)	
L1D -358>	(1,3)	(0,4)	(393,1)	(-4,1)	(-45,1)	(38,1)	(363,1)	(-89,1)	(-70,1)	(51,1)	(154,1)	(358,2)	(232,1)	(372,1)	(-46,1)	(-22,1)	
L1D -357>	(39,1)	(357,9)	(0,3)	(-26,7)	(155,1)	(-135,1)	(302,1)	(392,1)	(1,3)	(33,1)	(-37,1)	(6,1)	(-75,1)	(323,1)	(192,1)	(358,2)	
L1D -356>	(0,1)	(268,1)	(176,1)	(-79,1)	(1,4)	(356,4)	(-62,1)	(150,1)	(-36,1)	(357,9)	(9,1)	(1,0)	(1,0)	(1,0)	(1,0)	(1,0)	
L1D -355>	(1,3)	(356,15)	(79,1)	(235,1)	(245,1)	(-105,1)	(319,1)	(0,3)	(-14,1)	(270,2)	(-4,2)	(318,1)	(345,1)	(-41,1)	(-122,1)	(-18,4)	
L1D -354>	(360,3)	(0,5)	(1,1)	(314,1)	(354,5)	(87,1)	(54,1)	(424,1)	(337,1)	(1,0)	(1,0)	(1,0)	(1,0)	(1,0)	(1,0)	(1,0)	
L1D -353>	(-17,2)	(324,1)	(-51,1)	(-92,1)	(296,1)	(347,1)	(0,4)	(348,1)	(297,1)	(11,2)	(142,1)	(354,2)	(293,1)	(86,1)	(-149,1)	(-68,1)	
L1D -352>	(0,4)	(354,1)	(17,1)	(388,1)	(255,1)	(412,3)	(168,1)	(257,1)	(353,2)	(-31,1)	(139,1)	(193,1)	(-17,1)	(227,1)	(142,1)	(1,1)	
L1D -351>	(351,6)	(0,2)	(110,1)	(378,1)	(405,1)	(203,1)	(269,1)	(1,6)	(-24,1)	(-113,1)	(165,1)	(-58,1)	(-69,1)	(352,7)	(374,1)	(-59,1)	
L1D -350>	(0,6)	(350,3)	(374,2)	(1,6)	(351,15)	(-63,2)	(348,3)	(449,1)	(12,1)	(391,1)	(453,1)	(442,1)	(341,1)	(451,1)	(363,2)	(264,1)	
L1D -349>	(0,9)	(350,8)	(349,20)	(338,2)	(1,1)	(24,3)	(-26,1)	(11,1)	(448,1)	(363,3)	(32,1)	(153,2)	(457,1)	(354,1)	(282,1)	(64,1)	
L1D -348>	(349,5)	(347,4)	(346,2)	(348,20)	(192,1)	(-3,1)	(276,1)	(339,1)	(0,5)	(1,2)	(437,1)	(383,1)	(176,1)	(104,1)	(335,1)	(-31,1)	
L1D -347>	(244,1)	(347,16)	(346,12)	(330,1)	(1,5)	(446,1)	(16,1)	(437,1)	(359,1)	(-63,1)	(418,1)	(300,1)	(0,1)	(-36,1)	(-151,1)	(235,1)	
L1D -346>	(346,47)	(424,1)	(64,1)	(0,15)	(347,8)	(1,2)	(345,1)	(330,4)	(264,1)	(-16,1)	(344,1)	(59,1)	(168,1)	(-92,1)	(109,1)	(392,1)	
L1D -345>	(343,2)	(-114,1)	(0,5)	(346,3)	(345,20)	(344,5)	(1,4)	(316,1)	(-94,1)	(3,1)	(352,1)	(-17,1)	(89,1)	(181,2)	(373,1)	(165,1)	
L1D -344>	(0,4)	(344,31)	(342,2)	(345,4)	(343,2)	(403,5)	(410,1)	(-108,1)	(295,1)	(41,1)	(420,2)	(1,4)	(376,1)	(81,1)	(386,1)	(256,1)	
L1D -343>	(64,2)	(341,6)	(342,12)	(1,9)	(189,4)	(190,3)	(344,26)	(343,18)	(0,4)	(339,6)	(340,4)	(329,4)	(330,6)	(346,2)	(-31,1)	(390,1)	
L1D -342>	(0,13)	(342,18)	(340,2)	(341,7)	(343,11)	(189,2)	(190,2)	(259,1)	(327,1)	(348,2)	(332,1)	(-118,1)	(347,1)	(270,1)	(321,1)	(1,4)	
L1D -341>	(0,17)	(341,30)	(339,6)	(340,4)	(338,2)	(342,17)	(189,2)	(36,1)	(390,1)	(-106,1)	(162,1)	(303,1)	(324,2)	(1,3)	(384,1)	(234,1)	
L1D -340>	(347,1)	(342,3)	(0,4)	(1,4)	(346,1)	(202,1)	(-142,1)	(299,1)	(327,1)	(380,1)	(318,1)	(351,1)	(116,1)	(340,6)	(-4,2)	(7,1)	
L1D -339>	(337,7)	(0,7)	(48,2)	(344,2)	(130,1)	(338,12)	(340,10)	(341,9)	(339,34)	(299,1)	(1,10)	(343,1)	(411,1)	(-1,1)	(283,1)	(400,1)	
L1D -338>	(338,23)	(337,16)	(1,2)	(339,18)	(-1,2)	(335,5)	(336,8)	(48,2)	(341,8)	(0,6)	(343,3)	(-6,1)	(344,1)	(189,3)	(342,2)	(183,4)	
L1D -337>	(390,1)	(48,3)	(1,5)	(337,20)	(0,10)	(336,5)	(335,2)	(334,2)	(338,18)	(341,1)	(208,1)	(89,1)	(342,3)	(252,1)	(262,1)	(54,1)	
L1D -336>	(48,2)	(0,16)	(341,2)	(336,12)	(337,7)	(331,1)	(334,10)	(335,2)	(338,2)	(1,4)	(312,1)	(364,1)	(-118,1)	(290,1)	(-126,1)	(1,0)	
L1D -335>	(1,5)	(0,11)	(256,2)	(16,1)	(257,2)	(335,19)	(235,1)	(332,8)	(48,3)	(336,9)	(129,1)	(338,5)	(337,4)	(306,2)	(342,1)	(346,1)	
L1D -334>	(-34,1)	(48,14)	(316,1)	(44,1)	(64,2)	(1,3)	(334,18)	(333,5)	(0,21)	(256,4)	(332,2)	(335,4)	(273,1)	(337,2)	(336,1)	(294,1)	
L1D -333>	(48,4)	(313,1)	(332,11)	(334,7)	(333,26)	(154,1)	(0,16)	(126,1)	(-1,1)	(256,2)	(335,6)	(-3,1)	(336,5)	(309,1)	(338,1)	(301,1)	
L1D -332>	(44,5)	(172,1)	(0,2)	(333,7)	(332,9)	(335,2)	(132,1)	(1,5)	(338,2)	(314,1)	(242,2)	(270,1)	(275,1)	(-19,1)	(282,1)	(310,1)	
L1D -331>	(44,8)	(331,2)	(0,3)	(1,1)	(257,2)	(333,1)	(334,6)	(253,1)	(378,1)	(375,1)	(386,1)	(374,1)	(428,1)	(70,1)	(-44,3)	(-42,1)	
L1D -330>	(0,7)	(44,6)	(256,2)	(333,4)	(64,2)	(-136,1)	(330,2)	(-152,1)	(365,1)	(-58,1)	(349,1)	(1,3)	(335,1)	(363,1)	(-123,1)	(387,1)	
L1D -329>	(329,2)	(412,1)	(186,1)	(110,1)	(0,11)	(324,1)	(330,7)	(1,7)	(44,2)	(281,1)	(278,1)	(251,1)	(356,1)	(-56,1)	(209,1)	(64,1)	
L1D -328>	(361,6)	(328,3)	(1,9)	(327,1)	(324,2)	(0,7)	(182,1)	(286,1)	(10,1)	(305,1)	(262,1)	(457,1)	(69,1)	(329,6)	(-9,1)	(347,1)	
L1D -327>	(327,20)	(326,2)	(328,4)	(475,1)	(0,10)	(325,2)	(324,3)	(400,1)	(333,1)	(280,1)	(364,1)	(1,5)	(278,1)	(235,1)	(2,1)	(67,1)	
L1D -326>	(360,1)	(327,29)	(-11,1)	(326,8)	(324,2)	(325,5)	(337,1)	(1,5)	(215,1)	(0,2)	(237,1)	(-162,1)	(339,1)	(-13,1)	(23,1)	(224,1)	
L1D -325>	(325,7)	(326,3)	(330,2)	(255,1)	(-75,1)	(263,1)	(-76,1)	(238,1)	(279,1)	(0,6)	(341,1)	(-15,1)	(-17,2)	(1,2)	(-81,2)	(210,1)	
L1D -324>	(33,5)	(404,1)	(324,3)	(64,1)	(-129,1)	(252,1)	(315,1)	(0,2)	(52,1)	(-43,1)	(1,2)	(3,1)	(-156,1)	(340,1)	(66,1)	(150,1)	
L1D -323>	(33,6)	(321,2)	(323,2)	(21,1)	(-8,1)	(311,1)	(0,2)	(341,1)	(324,9)	(1,1)	(399,1)	(188,1)	(269,2)	(270,1)	(1,0)	(1,0)	
L1D -322>	(33,6)	(195,1)	(322,29)	(321,1)	(323,19)	(0,16)	(187,2)	(319,2)	(-84,1)	(327,1)	(277,1)	(61,1)	(1,1)	(11,1)	(-2,1)	(110,1)	
L1D -321>	(33,8)	(1,6)	(321,14)	(227,2)	(0,12)	(322,9)	(-46,1)	(333,1)	(68,1)	(18,1)	(327,1)	(162,1)	(295,1)	(30,1)	(309,1)	(341,1)	
L1D -320>	(33,11)	(0,20)	(320,41)	(321,8)	(319,5)	(1,11)	(318,2)	(227,4)	(171,1)	(186,2)	(187,1)	(322,4)	(312,1)	(325,1)	(326,1)	(271,1)	
L1D -319>	(33,7)	(319,34)	(367,8)	(320,20)	(325,3)	(1,6)	(0,16)	(321,3)	(322,2)	(297,1)	(316,1)	(-8,1)	(158,1)	(3,1)	(335,1)	(276,1)	
L1D -318>	(-64,3)	(324,2)	(0,16)	(33,6)	(318,1)	(323,1)	(64,1)	(279,1)	(366,1)	(314,1)	(319,20)	(8,1)	(311,1)	(1,8)	(-27,1)	(307,1)	
L1D -317>	(1,3)	(317,6)	(2,1)	(-23,1)	(0,9)	(40,1)	(323,2)	(64,1)	(33,3)	(297,1)	(342,1)	(87,1)	(273,1)	(319,1)	(403,1)	(318,7)	
L1D -316>	(316,41)	(0,14)	(317,6)	(315,3)	(1,6)	(261,1)	(319,1)	(328,1)	(335,2)	(322,1)	(321,2)	(364,1)	(287,1)	(170,1)	(490,1)	(380,1)	
L1D -315>	(0,3)	(315,12)	(316,18)	(151,1)	(1,4)	(227,3)	(320,3)	(319,2)	(321,1)	(268,2)	(169,1)	(-126,1)	(335,2)	(-43,1)	(-64,1)	(4,1)	
L1D -314>	(-68,2)	(0,5)	(314,5)	(37,2)	(374,1)	(331,1)	(277,1)	(127,1)	(212,1)	(319,1)	(64,1)	(1,11)	(290,1)	(-102,1)	(272,1)	(385,1)	
L1D -313>	(0,9)	(314,4)	(403,2)	(362,1)	(1,20)	(7,1)	(-49,1)	(301,1)	(313,17)	(333,2)	(185,2)	(235,1)	(282,1)	(205,1)	(395,1)	(271,1)	
L1D -312>	(316,4)	(311,1)	(228,1)	(126,1)	(317,2)	(-139,1)	(186,1)	(386,1)	(1,12)	(0,6)	(4,1)	(219,2)	(-130,1)	(312,13)	(313,6)	(5,1)	
L1D -311>	(0,8)	(311,30)	(310,5)	(312,8)	(1,8)	(236,1)	(361,1)	(281,1)	(295,1)	(-44,1)	(105,1)	(289,1)	(335,1)	(317,1)	(64,1)	(309,1)	
L1D -310>	(311,17)	(468,1)	(1,11)	(0,15)	(310,19)	(308,1)	(315,2)	(64,1)	(67,1)	(145,1)	(-100,1)	(22,1)	(50,1)	(351,1)	(381,1)	(309,10)	
L1D -309>	(22,3)	(1,11)	(309,10)	(310,9)	(308,8)	(0,15)	(-152,1)	(215,1)	(353,1)	(143,1)	(183,1)	(342,1)	(-109,1)	(-48,1)	(-33,1)	(238,1)	
L1D -308>	(308,28)	(0,13)	(314,2)	(-18,2)	(306,5)	(307,1)	(278,1)	(153,1)	(22,4)	(309,10)	(1,18)	(336,1)	(191,1)	(158,1)	(351,1)	(87,1)	
L1D -307>	(307,14)	(1,10)	(354,2)	(22,13)	(306,9)	(0,8)	(296,2)	(308,16)	(2,1)	(305,2)	(298,4)	(152,1)	(173,1)	(299,2)	(315,1)	(-23,1)	
L1D -306>	(0,20)	(306,14)	(22,13)	(307,8)	(1,3)	(296,2)	(-71,2)	(312,3)	(360,1)	(-175,1)	(65,1)	(329,1)	(287,1)	(197,1)	(272,1)	(214,1)	
L1D -305>	(0,13)	(64,2)	(29,1)	(305,8)	(307,1)	(310,4)	(118,1)	(266,1)	(271,1)	(-103,1)	(-56,1)	(22,1)	(386,1)	(1,5)	(400,3)	(139,1)	
L1D -304>	(309,2)	(304,7)	(0,7)	(364,5)	(305,3)	(138,1)	(64,1)	(269,1)	(60,1)	(353,1)	(320,1)	(140,1)	(283,2)	(1,3)	(-3,1)	(310,1)	
L1D -303>	(303,14)	(304,18)	(1,8)	(134,1)	(296,7)	(307,2)	(306,3)	(130,1)	(305,5)	(0,5)	(187,1)	(154,1)	(178,1)	(207,1)	(-39,1)	(49,1)	
L1D -302>	(0,8)	(375,1)	(303,6)	(308,1)	(45,1)	(166,1)	(-121,1)	(8,1)	(205,1)	(453,1)	(-39,1)	(262,1)	(1,5)	(302,6)	(307,1)	(344,1)	
L1D -301>	(0,8)	(316,1)	(301,7)	(-35,2)	(-41,1)	(74,1)	(168,1)	(186,1)	(496,1)	(318,2)	(200,1)	(304,1)	(302,6)	(1,3)	(300,2)	(-79,2)	
L1D -300>	(306,2)	(2,7)	(-58,1)	(300,32)	(301,23)	(299,1)	(1,8)	(0,21)	(14,1)	(65,2)	(116,1)	(-161,1)	(303,1)	(146,1)	(-55,1)	(262,1)	
L1D -299>	(11,7)	(0,15)	(1,17)	(-4,2)	(300,3)	(299,13)	(280,1)	(-121,1)	(271,1)	(-167,1)	(170,1)	(245,1)	(389,1)	(118,1)	(273,1)	(298,1)	
L1D -298>	(1,31)	(11,23)	(0,63)	(-1,21)	(298,55)	(297,11)	(388,3)	(395,2)	(278,8)	(299,16)	(-78,9)	(427,3)	(21,1)	(390,7)	(-9,1)	(396,1)	
L1D -297>	(11,34)	(297,39)	(-36,2)	(296,3)	(8,1)	(241,1)	(0,14)	(298,10)	(277,1)	(1,13)	(192,1)	(306,1)	(-8,1)	(63,1)	(284,1)	(-2,1)	
L1D -296>	(0,18)	(11,41)	(301,2)	(-29,12)	(-110,4)	(314,9)	(1,4)	(295,6)	(296,5)	(297,9)	(298,2)	(127,1)	(-102,1)	(257,2)	(-25,1)	(10,1)	
L1D -295>	(11,36)	(131,1)	(296,11)	(295,14)	(1,5)	(0,9)	(307,1)	(301,1)	(64,1)	(306,1)	(10,1)	(2,1)	(8,1)	(256,1)	(290,1)	(160,1)	
L1D -294>	(11,39)	(0,26)	(160,1)	(1,7)	(294,19)	(293,2)	(295,1)	(298,5)	(274,1)	(7,1)	(284,1)	(144,1)	(372,1)	(236,2)	(317,1)	(267,1)	
L1D -293>	(10,4)	(11,6)	(298,4)	(0,12)	(293,20)	(294,3)	(306,1)	(5,1)	(1,5)	(160,1)	(208,1)	(-90,1)	(-169,1)	(339,1)	(209,1)	(-168,1)	
L1D -292>	(2,3)	(-172,1)	(0,7)	(292,10)	(67,3)	(64,1)	(298,1)	(313,1)	(148,1)	(-141,1)	(447,1)	(186,1)	(221,1)	(1,4)	(297,2)	(293,5)	
L1D -291>	(296,5)	(290,2)	(0,10)	(292,15)	(291,14)	(1,15)	(289,1)	(64,1)	(213,1)	(126,1)	(59,1)	(216,1)	(379,1)	(259,1)	(2,1)	(4,1)	
L1D -290>	(1,33)	(290,21)	(65,66)	(291,1)	(289,7)	(288,2)	(0,7)	(-9,1)	(295,1)	(-8,2)	(-7,1)	(249,1)	(64,1)	(390,1)	(292,1)	(299,2)	
L1D -289>	(0,8)	(294,3)	(29,2)	(289,24)	(1,5)	(-25,2)	(290,7)	(288,4)	(306,1)	(396,1)	(281,1)	(363,1)	(255,1)	(293,1)	(-92,1)	(323,1)	
L1D -288>	(240,1)	(1,12)	(288,44)	(287,8)	(289,12)	(2,2)	(189,4)	(0,18)	(286,1)	(285,7)	(290,1)	(294,3)	(200,1)	(344,1)	(199,1)	(198,1)	
L1D -287>	(0,20)	(293,5)	(-63,2)	(286,5)	(287,44)	(288,16)	(1,12)	(189,3)	(186,1)	(290,1)	(-33,2)	(64,1)	(141,1)	(-64,1)	(-217,1)	(319,1)	
L1D -286>	(292,5)	(-57,6)	(0,8)	(286,22)	(285,6)	(287,25)	(288,4)	(-67,6)	(-1,2)	(1,6)	(392,2)	(-166,1)	(101,1)	(209,1)	(291,2)	(138,1)	
L1D -285>	(285,23)	(286,11)	(0,4)	(299,2)	(287,3)	(315,2)	(347,1)	(189,1)	(288,7)	(1,4)	(289,1)	(-6,1)	(284,4)	(-9,1)	(290,3)	(7,1)	
L1D -284>	(289,4)	(64,2)	(287,2)	(284,10)	(283,4)	(285,2)	(0,8)	(290,3)	(1,8)	(-1,1)	(-14,2)	(198,1)	(252,1)	(400,1)	(227,1)	(256,1)	
L1D -283>	(289,4)	(0,11)	(290,2)	(283,17)	(1,6)	(-1,2)	(282,9)	(270,1)	(284,8)	(191,1)	(297,1)	(285,1)	(-39,1)	(50,1)	(357,1)	(287,1)	
L1D -282>	(64,2)	(287,5)	(1,10)	(282,44)	(283,15)	(0,11)	(-120,5)	(286,2)	(281,1)	(301,1)	(-3,1)	(302,1)	(254,1)	(226,1)	(230,1)	(185,1)	
L1D -281>	(286,13)	(287,5)	(282,39)	(281,18)	(396,2)	(415,5)	(404,2)	(0,4)	(264,1)	(-76,1)	(306,1)	(34,1)	(-54,1)	(74,1)	(272,1)	(-40,1)	
L1D -280>	(280,9)	(0,10)	(235,1)	(287,1)	(278,2)	(1,2)	(285,1)	(342,1)	(250,1)	(-227,1)	(395,1)	(111,1)	(270,1)	(-170,1)	(286,2)	(64,3)	
L1D -279>	(0,9)	(283,5)	(273,3)	(340,1)	(279,6)	(284,6)	(280,7)	(-9,1)	(-92,1)	(285,3)	(1,5)	(8,1)	(32,1)	(62,1)	(83,1)	(338,1)	
L1D -278>	(1,25)	(283,8)	(0,11)	(277,5)	(278,78)	(274,7)	(-66,23)	(279,15)	(284,3)	(-128,1)	(262,1)	(223,1)	(260,1)	(-38,1)	(-119,1)	(-98,1)	
L1D -277>	(1,35)	(301,3)	(276,5)	(277,70)	(191,1)	(0,23)	(235,2)	(278,30)	(273,4)	(274,1)	(298,2)	(283,3)	(2,2)	(9,1)	(304,1)	(180,1)	
L1D -276>	(1,41)	(0,37)	(282,7)	(276,116)	(273,2)	(264,1)	(277,10)	(161,1)	(274,1)	(235,3)	(-1,1)	(278,1)	(279,1)	(2,1)	(281,1)	(-179,1)	
L1D -275>	(1,50)	(281,3)	(0,15)	(276,24)	(274,2)	(275,36)	(-1,2)	(280,4)	(178,1)	(136,1)	(271,1)	(338,1)	(286,1)	(265,1)	(278,1)	(146,1)	
L1D -274>	(1,74)	(0,12)	(135,5)	(274,5)	(273,2)	(269,1)	(294,3)	(333,1)	(280,6)	(275,8)	(279,2)	(136,2)	(285,1)	(64,1)	(295,1)	(346,1)	
L1D -273>	(1,87)	(0,18)	(-54,15)	(135,29)	(136,25)	(274,8)	(195,1)	(278,3)	(4,1)	(137,1)	(-136,6)	(2,1)	(-135,4)	(273,5)	(272,7)	(276,2)	
L1D -272>	(0,25)	(1,39)	(272,7)	(-80,2)	(136,21)	(-1,7)	(278,4)	(137,2)	(264,2)	(275,2)	(-165,1)	(276,9)	(277,6)	(280,2)	(135,3)	(271,1)	
L1D -271>	(0,32)	(-1,16)	(276,4)	(135,11)	(-2,3)	(270,2)	(136,4)	(272,1)	(-136,1)	(64,1)	(277,1)	(4,1)	(282,1)	(200,1)	(434,1)	(375,1)	
L1D -270>	(0,14)	(275,2)	(-1,12)	(135,8)	(-2,10)	(270,11)	(1,15)	(269,3)	(271,9)	(359,1)	(362,1)	(-13,2)	(202,1)	(345,2)	(191,1)	(321,1)	
L1D -269>	(-1,13)	(0,21)	(275,3)	(269,10)	(-2,10)	(1,5)	(274,2)	(270,6)	(268,8)	(-57,3)	(-141,1)	(-26,1)	(-37,1)	(264,1)	(-76,1)	(203,1)	
L1D -268>	(0,8)	(-1,3)	(-57,3)	(267,4)	(273,4)	(157,1)	(388,1)	(1,4)	(274,1)	(85,1)	(268,5)	(172,1)	(145,1)	(265,1)	(252,1)	(-92,1)	
L1D -267>	(272,6)	(0,6)	(-1,5)	(1,4)	(267,31)	(268,1)	(266,1)	(-2,3)	(-61,1)	(274,2)	(278,2)	(-60,1)	(317,1)	(-117,1)	(196,1)	(237,1)	
L1D -266>	(272,3)	(266,45)	(0,25)	(265,2)	(267,8)	(-178,1)	(11,1)	(-5,1)	(258,1)	(1,15)	(96,1)	(370,1)	(42,1)	(248,1)	(-74,1)	(179,1)	
L1D -265>	(271,4)	(0,19)	(1,12)	(-1,2)	(266,5)	(265,12)	(161,1)	(158,1)	(321,1)	(-110,1)	(163,1)	(107,1)	(-145,1)	(250,1)	(287,1)	(326,1)	
L1D -264>	(269,5)	(265,1)	(0,13)	(263,4)	(270,4)	(264,31)	(64,1)	(-1,1)	(-7,1)	(148,1)	(82,1)	(255,1)	(217,1)	(266,1)	(153,1)	(289,1)	
L1D -263>	(269,4)	(262,7)	(263,22)	(0,11)	(264,5)	(64,2)	(-70,1)	(268,2)	(1,6)	(-24,1)	(343,2)	(230,1)	(448,1)	(164,1)	(-212,2)	(151,1)	
L1D -262>	(261,7)	(262,84)	(263,4)	(0,12)	(1,11)	(-136,2)	(-21,2)	(327,1)	(231,1)	(126,1)	(247,1)	(-44,1)	(234,1)	(421,1)	(64,2)	(268,1)	
L1D -261>	(266,1)	(0,10)	(267,2)	(261,67)	(260,8)	(262,15)	(222,1)	(1,5)	(-57,1)	(263,0)	(-25,0)	(6,0)	(2,0)	(48,0)	(276,0)	(-110,0)	
L1D -260>	(265,4)	(260,108)	(-1,5)	(259,7)	(0,21)	(1,6)	(261,15)	(7,1)	(97,1)	(266,3)	(338,1)	(191,1)	(403,1)	(402,1)	(206,2)	(316,1)	
L1D -259>	(260,37)	(259,105)	(0,20)	(281,2)	(258,10)	(-85,6)	(98,2)	(262,2)	(1,9)	(64,2)	(264,3)	(257,2)	(278,3)	(-5,1)	(236,1)	(-195,1)	
L1D -258>	(263,3)	(0,21)	(257,2)	(258,18)	(259,9)	(1,2)	(-103,1)	(261,3)	(288,1)	(264,5)	(-109,1)	(143,1)	(248,1)	(384,1)	(408,1)	(99,1)	
L1D -257>	(0,19)	(264,1)	(257,48)	(258,6)	(260,6)	(256,9)	(-1,1)	(261,2)	(254,1)	(1,13)	(262,2)	(64,1)	(442,1)	(243,2)	(244,2)	(-35,1)	
L1D -256>	(261,3)	(0,12)	(256,63)	(-1,2)	(257,28)	(254,6)	(-10,1)	(128,1)	(64,1)	(255,4)	(95,2)	(1,16)	(7,1)	(227,1)	(-20,2)	(262,1)	
L1D -255>	(261,4)	(255,35)	(254,9)	(258,2)	(0,26)	(1,7)	(260,3)	(-20,2)	(256,20)	(296,2)	(253,1)	(103,1)	(-22,1)	(226,1)	(428,1)	(276,2)	
L1D -254>	(255,10)	(298,3)	(-1,1)	(64,1)	(0,14)	(254,16)	(-68,3)	(-40,2)	(1,6)	(259,1)	(260,2)	(-76,1)	(221,1)	(238,1)	(48,1)	(-71,1)	
L1D -253>	(258,6)	(-46,3)	(253,20)	(0,8)	(252,2)	(1,1)	(111,1)	(64,2)	(174,1)	(314,1)	(168,1)	(103,1)	(50,1)	(-155,1)	(54,1)	(134,1)	
L1D -252>	(-190,1)	(0,11)	(1,8)	(252,29)	(-1,2)	(253,16)	(-9,1)	(257,4)	(-4,1)	(-3,1)	(-7,1)	(382,1)	(64,1)	(120,2)	(-195,1)	(263,1)	
L1D -251>	(251,28)	(0,16)	(249,3)	(250,4)	(357,7)	(257,2)	(252,8)	(-9,3)	(277,2)	(1,8)	(298,2)	(-168,1)	(243,1)	(73,1)	(-58,1)	(155,1)	
L1D -250>	(255,2)	(256,6)	(0,22)	(250,20)	(251,7)	(1,5)	(249,3)	(372,3)	(373,4)	(306,1)	(217,1)	(243,1)	(266,1)	(71,1)	(195,1)	(366,1)	
L1D -249>	(418,2)	(249,27)	(250,12)	(260,2)	(247,2)	(255,2)	(372,3)	(248,2)	(393,1)	(280,1)	(444,1)	(65,1)	(337,1)	(1,4)	(0,15)	(239,1)	
L1D -248>	(253,7)	(125,2)	(246,1)	(0,19)	(317,1)	(248,26)	(1,15)	(249,16)	(-13,1)	(-53,1)	(236,1)	(254,2)	(81,1)	(230,1)	(-202,1)	(142,1)	
L1D -247>	(252,5)	(0,13)	(253,5)	(248,8)	(246,3)	(247,16)	(1,12)	(314,2)	(271,9)	(18,1)	(-207,1)	(-197,1)	(326,1)	(308,1)	(-146,1)	(74,1)	
L1D -246>	(0,7)	(244,3)	(246,26)	(-14,5)	(247,11)	(245,1)	(251,1)	(1,12)	(-46,1)	(128,1)	(347,1)	(411,1)	(253,1)	(91,1)	(384,1)	(61,1)	
L1D -245>	(0,9)	(250,2)	(246,1)	(1,6)	(247,1)	(251,2)	(245,6)	(146,1)	(370,2)	(87,1)	(62,1)	(-55,1)	(-206,1)	(221,1)	(59,1)	(110,1)	
L1D -244>	(249,3)	(250,5)	(1,8)	(244,3)	(0,6)	(-168,4)	(247,2)	(-147,1)	(422,1)	(186,1)	(490,1)	(55,1)	(80,1)	(-130,1)	(179,1)	(-126,1)	
L1D -243>	(244,30)	(249,2)	(243,33)	(242,15)	(0,8)	(1,10)	(349,4)	(248,2)	(241,3)	(95,1)	(62,1)	(-241,1)	(263,2)	(83,1)	(-35,1)	(126,1)	
L1D -242>	(247,3)	(248,6)	(242,23)	(243,6)	(274,5)	(253,2)	(0,8)	(241,3)	(427,6)	(1,10)	(43,1)	(23,1)	(293,1)	(318,1)	(-52,1)	(137,1)	
L1D -241>	(0,9)	(247,2)	(240,4)	(242,7)	(1,4)	(241,18)	(246,3)	(-116,1)	(167,1)	(213,1)	(64,1)	(353,1)	(344,1)	(362,1)	(-102,1)	(417,1)	
L1D -240>	(240,25)	(0,17)	(245,2)	(241,20)	(-57,2)	(287,1)	(1,10)	(64,2)	(48,1)	(-14,1)	(-187,1)	(-155,1)	(127,1)	(348,1)	(211,1)	(-139,1)	
L1D -239>	(244,5)	(245,5)	(0,29)	(1,18)	(240,13)	(239,5)	(236,1)	(172,1)	(65,1)	(140,1)	(293,1)	(349,1)	(33,1)	(463,1)	(407,1)	(437,1)	
L1D -238>	(244,7)	(239,10)	(238,13)	(0,19)	(2,1)	(237,1)	(235,4)	(236,4)	(223,1)	(1,11)	(28,1)	(214,1)	(91,1)	(193,1)	(334,1)	(177,2)	
L1D -237>	(242,7)	(237,3)	(1,4)	(0,17)	(238,1)	(457,1)	(243,1)	(-37,5)	(64,1)	(130,1)	(312,1)	(49,1)	(268,1)	(124,1)	(236,2)	(143,1)	
L1D -236>	(241,4)	(237,13)	(0,5)	(235,3)	(242,2)	(238,2)	(-23,1)	(236,7)	(99,1)	(52,1)	(281,1)	(339,1)	(-70,2)	(278,1)	(215,1)	(-108,1)	
L1D -235>	(240,4)	(1,6)	(241,3)	(0,12)	(236,7)	(235,15)	(-72,1)	(239,2)	(251,1)	(-3,1)	(-9,1)	(170,1)	(344,1)	(301,1)	(-161,1)	(405,1)	
L1D -234>	(239,4)	(235,12)	(236,2)	(-67,2)	(234,2)	(1,8)	(282,1)	(286,1)	(212,1)	(33,1)	(-151,1)	(222,1)	(83,1)	(347,1)	(267,1)	(48,1)	
L1D -233>	(239,2)	(0,14)	(238,12)	(234,23)	(233,10)	(-60,1)	(1,16)	(200,1)	(257,1)	(296,1)	(151,2)	(20,1)	(177,1)	(81,2)	(333,1)	(-63,1)	
L1D -232>	(232,14)	(64,2)	(1,6)	(-1,2)	(237,2)	(233,9)	(0,7)	(230,2)	(393,1)	(228,1)	(91,1)	(62,1)	(121,1)	(-114,1)	(181,1)	(58,1)	
L1D -231>	(236,2)	(0,11)	(237,6)	(231,13)	(1,7)	(-175,1)	(221,1)	(-13,6)	(-14,1)	(266,1)	(-36,1)	(419,1)	(379,1)	(-8,1)	(274,2)	(251,1)	
L1D -230>	(0,9)	(236,8)	(-140,3)	(229,3)	(64,2)	(230,4)	(1,9)	(-12,2)	(231,2)	(-38,1)	(134,1)	(348,1)	(159,1)	(-194,1)	(130,1)	(219,1)	
L1D -229>	(235,2)	(-12,3)	(64,2)	(229,36)	(230,10)	(-210,17)	(101,1)	(0,10)	(236,1)	(1,12)	(-10,1)	(326,1)	(-109,1)	(317,1)	(-106,1)	(410,1)	
L1D -228>	(233,7)	(0,11)	(234,4)	(228,23)	(-20,1)	(-7,1)	(64,2)	(1,11)	(327,1)	(241,2)	(-192,1)	(471,1)	(243,1)	(44,1)	(240,1)	(133,1)	
L1D -227>	(233,10)	(1,22)	(227,16)	(0,14)	(228,20)	(185,1)	(196,1)	(21,1)	(398,1)	(372,1)	(16,1)	(353,1)	(151,1)	(249,1)	(-16,1)	(232,5)	
L1D -226>	(1,9)	(231,3)	(0,9)	(226,20)	(225,2)	(227,5)	(374,1)	(64,2)	(-61,1)	(288,1)	(232,2)	(166,1)	(366,1)	(468,1)	(235,1)	(261,1)	
L1D -225>	(0,19)	(225,18)	(230,3)	(226,11)	(238,12)	(-57,2)	(1,7)	(278,7)	(21,1)	(269,1)	(359,1)	(-199,1)	(2,1)	(190,1)	(317,1)	(184,1)	
L1D -224>	(64,3)	(229,3)	(-155,1)	(0,8)	(-30,1)	(-23,1)	(224,19)	(302,2)	(1,10)	(21,1)	(250,1)	(-162,1)	(161,1)	(308,1)	(211,1)	(151,1)	
L1D -223>	(228,7)	(0,23)	(229,3)	(224,32)	(221,5)	(395,5)	(1,16)	(222,3)	(-157,2)	(218,1)	(206,1)	(313,1)	(327,1)	(299,1)	(191,1)	(223,51)	
L1D -222>	(228,8)	(227,9)	(-149,2)	(0,9)	(223,21)	(221,6)	(1,6)	(-61,2)	(222,11)	(-157,3)	(-74,1)	(-232,1)	(-73,1)	(84,1)	(150,1)	(253,1)	
L1D -221>	(221,28)	(222,15)	(-156,1)	(84,1)	(208,1)	(-217,1)	(65,1)	(130,1)	(279,1)	(29,1)	(-225,1)	(345,1)	(58,1)	(275,1)	(360,1)	(0,8)	
L1D -220>	(225,4)	(226,6)	(-67,9)	(-91,2)	(1,11)	(221,30)	(219,2)	(0,3)	(-133,2)	(220,9)	(13,1)	(327,1)	(-10,1)	(-162,1)	(81,1)	(490,1)	
L1D -219>	(-63,5)	(219,21)	(220,20)	(0,9)	(218,5)	(1,9)	(409,1)	(225,1)	(64,1)	(212,1)	(224,3)	(87,1)	(384,1)	(351,1)	(352,1)	(142,1)	
L1D -218>	(80,46)	(223,4)	(224,3)	(1,13)	(0,14)	(219,19)	(129,2)	(-168,2)	(216,3)	(218,39)	(217,4)	(255,1)	(128,2)	(130,2)	(214,1)	(338,1)	
L1D -217>	(223,7)	(222,4)	(0,12)	(-22,2)	(-8,4)	(217,7)	(218,5)	(31,1)	(200,1)	(1,8)	(-12,1)	(171,3)	(61,1)	(219,1)	(393,1)	(137,1)	
L1D -216>	(33,20)	(222,9)	(0,18)	(217,18)	(125,2)	(1,5)	(216,31)	(221,4)	(245,6)	(251,2)	(-21,1)	(186,1)	(415,1)	(226,1)	(184,1)	(100,1)	
L1D -215>	(-40,23)	(220,9)	(216,27)	(366,2)	(-99,1)	(-14,2)	(215,17)	(0,12)	(64,3)	(22,1)	(1,4)	(229,1)	(432,1)	(-219,1)	(263,1)	(185,1)	
L1D -214>	(0,9)	(214,9)	(-209,2)	(219,6)	(64,3)	(-33,2)	(21,3)	(-1,2)	(-21,1)	(367,1)	(157,1)	(169,1)	(74,1)	(95,1)	(1,10)	(249,1)	
L1D -213>	(211,3)	(214,7)	(213,11)	(219,6)	(218,4)	(64,3)	(-57,11)	(167,3)	(309,4)	(375,3)	(0,5)	(1,12)	(181,1)	(420,1)	(23,1)	(-94,1)	
L1D -212>	(0,13)	(64,3)	(1,14)	(21,2)	(212,23)	(211,3)	(261,2)	(217,6)	(218,3)	(-72,6)	(213,14)	(20,1)	(234,1)	(76,1)	(223,2)	(-37,5)	
L1D -211>	(0,37)	(210,12)	(216,4)	(211,64)	(217,4)	(227,2)	(212,49)	(127,4)	(1,11)	(65,2)	(22,2)	(209,7)	(60,1)	(102,1)	(-167,1)	(386,1)	
L1D -210>	(227,2)	(64,4)	(210,28)	(1,12)	(-13,8)	(215,4)	(292,2)	(351,3)	(211,27)	(440,15)	(0,2)	(15,1)	(-159,1)	(-41,1)	(159,1)	(155,1)	
L1D -209>	(64,4)	(192,2)	(-5,3)	(182,6)	(423,2)	(209,26)	(-12,3)	(210,6)	(1,14)	(0,17)	(215,2)	(208,3)	(219,1)	(42,2)	(194,2)	(91,1)	
L1D -208>	(0,13)	(213,9)	(208,13)	(64,7)	(51,2)	(1,8)	(-47,3)	(-12,3)	(43,1)	(207,4)	(209,35)	(45,2)	(254,1)	(326,2)	(-173,1)	(252,1)	
L1D -207>	(0,18)	(212,2)	(208,2)	(64,2)	(164,1)	(207,16)	(206,1)	(-189,1)	(-213,1)	(1,15)	(213,5)	(218,2)	(265,1)	(232,1)	(148,1)	(168,1)	
L1D -206>	(212,3)	(64,4)	(211,6)	(-128,2)	(205,4)	(206,37)	(0,14)	(203,2)	(1,6)	(-10,3)	(207,5)	(112,1)	(-132,1)	(480,1)	(40,1)	(86,1)	
L1D -205>	(211,3)	(205,24)	(261,16)	(0,11)	(206,16)	(1,9)	(204,2)	(-95,2)	(210,2)	(64,3)	(-36,4)	(227,2)	(203,2)	(-68,2)	(255,2)	(2,1)	
L1D -204>	(0,16)	(64,5)	(204,15)	(205,9)	(1,10)	(-4,2)	(209,3)	(259,10)	(228,2)	(229,2)	(203,2)	(-69,1)	(79,2)	(251,1)	(161,1)	(146,1)	
L1D -203>	(317,2)	(209,10)	(64,4)	(10,2)	(1,7)	(214,1)	(208,2)	(0,11)	(204,2)	(203,18)	(202,4)	(375,1)	(-51,1)	(184,1)	(365,1)	(78,1)	
L1D -202>	(202,8)	(201,4)	(208,10)	(10,6)	(231,5)	(0,9)	(1,9)	(203,7)	(207,6)	(317,1)	(-92,1)	(-193,1)	(440,1)	(-23,1)	(214,1)	(60,1)	
L1D -201>	(201,22)	(202,3)	(1,3)	(0,10)	(206,3)	(-2,3)	(64,2)	(207,2)	(-3,1)	(67,1)	(-1,2)	(11,2)	(130,1)	(110,1)	(-61,1)	(134,1)	
L1D -200>	(10,2)	(205,4)	(0,12)	(206,6)	(1,5)	(199,10)	(201,7)	(38,1)	(200,28)	(6,1)	(125,1)	(-97,1)	(266,1)	(7,1)	(-55,1)	(-105,1)	
L1D -199>	(11,5)	(204,5)	(214,1)	(205,4)	(0,9)	(44,1)	(200,2)	(288,1)	(199,9)	(-2,1)	(1,8)	(113,1)	(244,1)	(432,1)	(151,2)	(173,1)	
L1D -198>	(203,5)	(0,3)	(204,2)	(1,7)	(197,4)	(198,16)	(199,7)	(6,1)	(212,1)	(146,1)	(145,1)	(144,1)	(305,1)	(196,1)	(163,1)	(33,1)	
L1D -197>	(0,20)	(11,2)	(202,9)	(203,3)	(197,41)	(198,17)	(1,11)	(213,2)	(-2,2)	(196,7)	(195,3)	(208,1)	(-3,1)	(-9,1)	(112,1)	(190,2)	
L1D -196>	(196,23)	(174,2)	(-34,2)	(197,12)	(202,4)	(-5,2)	(-2,2)	(0,21)	(132,2)	(210,2)	(1,13)	(205,1)	(171,2)	(2,2)	(201,2)	(242,1)	
L1D -195>	(194,10)	(195,43)	(0,26)	(2,3)	(201,2)	(196,44)	(200,3)	(157,5)	(64,4)	(193,2)	(209,2)	(-82,9)	(1,20)	(95,2)	(-191,2)	(-27,1)	
L1D -194>	(200,5)	(194,37)	(195,23)	(0,38)	(193,13)	(1,17)	(231,2)	(232,2)	(199,2)	(279,3)	(64,3)	(-112,4)	(-79,2)	(227,2)	(26,1)	(207,1)	
L1D -193>	(199,6)	(0,27)	(64,3)	(194,17)	(1,14)	(193,19)	(192,5)	(197,2)	(219,2)	(257,3)	(5,1)	(-195,1)	(260,1)	(-129,1)	(177,1)	(286,1)	
L1D -192>	(198,2)	(191,3)	(64,4)	(197,4)	(0,16)	(192,14)	(193,10)	(-2,3)	(1,14)	(330,1)	(122,1)	(98,1)	(148,1)	(185,1)	(221,1)	(464,1)	
L1D -191>	(192,9)	(191,12)	(-19,2)	(197,8)	(244,6)	(387,1)	(0,15)	(196,4)	(190,1)	(-1,2)	(-23,2)	(47,1)	(301,1)	(-22,1)	(1,14)	(205,1)	
L1D -190>	(190,20)	(-51,4)	(1,12)	(189,2)	(-110,1)	(191,23)	(-1,1)	(0,11)	(84,1)	(-2,1)	(6,1)	(-23,2)	(-21,1)	(195,2)	(204,1)	(-52,3)	
L1D -189>	(194,5)	(189,37)	(190,11)	(0,19)	(312,1)	(1,9)	(186,3)	(64,4)	(211,1)	(10,1)	(195,3)	(380,3)	(381,1)	(-21,1)	(316,1)	(-65,1)	
L1D -188>	(188,53)	(189,8)	(1,8)	(187,4)	(-1,2)	(0,9)	(185,3)	(186,3)	(243,5)	(327,1)	(169,2)	(381,2)	(171,1)	(128,2)	(111,1)	(355,1)	
L1D -187>	(0,6)	(192,4)	(1,12)	(64,2)	(188,3)	(186,2)	(198,1)	(206,1)	(-1,1)	(187,19)	(-3,1)	(173,1)	(100,1)	(-64,1)	(-89,1)	(131,1)	
L1D -186>	(191,13)	(1,9)	(192,6)	(0,26)	(187,3)	(186,29)	(185,4)	(201,1)	(62,1)	(239,1)	(197,1)	(157,1)	(199,1)	(22,1)	(-189,1)	(-299,1)	
L1D -185>	(191,7)	(0,19)	(184,14)	(185,41)	(1,16)	(186,27)	(126,1)	(195,1)	(164,2)	(225,1)	(26,1)	(120,2)	(27,1)	(188,1)	(305,1)	(62,1)	
L1D -184>	(0,17)	(184,23)	(190,2)	(1,10)	(185,7)	(189,3)	(64,3)	(-91,3)	(-81,1)	(19,2)	(-116,1)	(-77,1)	(32,1)	(-109,1)	(-255,1)	(141,1)	
L1D -183>	(189,4)	(0,7)	(184,7)	(183,14)	(-32,6)	(-97,2)	(-131,1)	(1,9)	(-5,1)	(194,1)	(-25,1)	(-81,1)	(-56,1)	(148,1)	(-223,1)	(287,1)	
L1D -182>	(188,6)	(187,4)	(-128,2)	(181,2)	(183,15)	(1,9)	(-30,2)	(182,10)	(0,4)	(19,1)	(180,1)	(-16,1)	(65,1)	(355,1)	(-226,1)	(186,1)	
L1D -181>	(187,12)	(186,10)	(34,1)	(0,9)	(270,1)	(182,14)	(-3,2)	(181,8)	(-6,1)	(280,1)	(1,7)	(185,1)	(-37,1)	(141,1)	(-215,1)	(-307,1)	
L1D -180>	(185,8)	(181,29)	(186,9)	(0,25)	(179,10)	(180,64)	(178,2)	(197,3)	(1,25)	(-1,1)	(29,1)	(31,1)	(233,1)	(-37,1)	(383,1)	(-131,1)	
L1D -179>	(180,51)	(177,4)	(0,39)	(-114,1)	(178,18)	(1,35)	(184,3)	(179,73)	(28,1)	(117,1)	(397,1)	(198,1)	(10,1)	(403,1)	(128,1)	(280,1)	
L1D -178>	(1,13)	(0,28)	(177,13)	(179,33)	(178,57)	(174,2)	(183,3)	(175,2)	(279,6)	(184,3)	(176,3)	(278,1)	(19,2)	(203,1)	(189,1)	(310,1)	
L1D -177>	(279,2)	(0,17)	(177,28)	(178,23)	(182,2)	(1,8)	(304,2)	(176,3)	(-129,1)	(-63,1)	(188,1)	(207,1)	(-16,1)	(84,1)	(60,1)	(-152,1)	
L1D -176>	(-9,3)	(178,5)	(-100,2)	(-18,5)	(-13,4)	(181,8)	(-15,5)	(176,12)	(-8,3)	(1,15)	(182,2)	(-11,6)	(0,10)	(177,28)	(187,2)	(175,11)	
L1D -175>	(181,4)	(174,7)	(180,7)	(0,18)	(178,2)	(175,28)	(-5,3)	(1,7)	(-88,5)	(176,13)	(-107,5)	(-7,1)	(-12,1)	(100,1)	(74,1)	(193,1)	
L1D -174>	(-11,6)	(172,3)	(180,11)	(173,9)	(175,23)	(0,19)	(1,20)	(174,55)	(-164,2)	(-139,1)	(138,2)	(372,6)	(373,2)	(269,1)	(65,2)	(171,2)	
L1D -173>	(21,5)	(179,8)	(192,2)	(173,49)	(174,28)	(172,6)	(1,15)	(-12,2)	(0,17)	(178,4)	(171,2)	(-47,2)	(49,1)	(220,1)	(-27,1)	(149,1)	
L1D -172>	(171,11)	(177,4)	(172,22)	(178,2)	(173,24)	(0,10)	(1,19)	(97,2)	(-72,1)	(158,1)	(26,1)	(409,1)	(64,1)	(314,1)	(139,1)	(237,1)	
L1D -171>	(176,6)	(174,2)	(177,8)	(0,10)	(1,17)	(312,3)	(172,19)	(141,2)	(171,38)	(-107,2)	(267,1)	(-13,1)	(34,2)	(102,2)	(-66,1)	(190,1)	
L1D -170>	(176,15)	(0,20)	(169,1)	(175,5)	(1,13)	(170,28)	(458,1)	(95,2)	(171,7)	(-5,1)	(-27,1)	(65,2)	(-13,1)	(109,1)	(-12,1)	(121,1)	
L1D -169>	(2,6)	(174,8)	(175,5)	(168,6)	(259,4)	(-9,3)	(0,12)	(169,51)	(170,29)	(1,27)	(-103,7)	(-2,2)	(277,1)	(197,2)	(21,2)	(339,1)	
L1D -168>	(173,8)	(0,21)	(168,39)	(166,2)	(167,8)	(169,67)	(65,18)	(177,2)	(130,2)	(1,13)	(-15,20)	(-4,3)	(375,1)	(255,1)	(134,1)	(-112,1)	
L1D -167>	(1,40)	(38,1)	(184,2)	(257,62)	(29,1)	(168,7)	(-94,1)	(172,3)	(251,1)	(166,2)	(167,12)	(10,2)	(200,1)	(390,1)	(230,1)	(119,1)	
L1D -166>	(0,13)	(172,3)	(82,2)	(166,34)	(-17,2)	(167,4)	(1,5)	(-42,2)	(106,1)	(243,5)	(244,2)	(256,3)	(164,1)	(183,1)	(-8,1)	(321,3)	
L1D -165>	(171,7)	(166,7)	(170,11)	(-218,1)	(-153,1)	(0,13)	(187,1)	(165,26)	(1,11)	(164,3)	(147,1)	(176,3)	(-268,1)	(243,2)	(398,1)	(470,1)	
L1D -164>	(164,45)	(163,9)	(11,17)	(0,28)	(-100,7)	(170,10)	(1,15)	(160,3)	(43,3)	(169,4)	(193,3)	(165,10)	(-24,2)	(197,2)	(333,1)	(211,1)	
L1D -163>	(11,24)	(0,41)	(261,4)	(163,57)	(10,15)	(162,8)	(169,6)	(-122,1)	(1,11)	(151,4)	(-97,6)	(164,11)	(159,5)	(-94,2)	(-1,6)	(165,3)	
L1D -162>	(10,18)	(162,70)	(0,31)	(163,15)	(150,3)	(-120,5)	(1,7)	(139,6)	(167,3)	(140,3)	(168,7)	(-97,4)	(11,12)	(164,3)	(182,1)	(-23,1)	
L1D -161>	(162,44)	(-213,4)	(166,4)	(161,98)	(278,5)	(10,18)	(0,34)	(160,7)	(-277,1)	(11,8)	(-63,4)	(1,15)	(-60,6)	(-24,2)	(303,6)	(-164,4)	
L1D -160>	(165,4)	(0,28)	(140,3)	(-80,3)	(162,8)	(163,2)	(166,6)	(160,12)	(1,7)	(197,1)	(10,8)	(64,1)	(159,11)	(161,28)	(-2,1)	(-25,3)	
L1D -159>	(162,3)	(192,3)	(165,11)	(159,28)	(172,1)	(163,6)	(164,11)	(156,2)	(82,3)	(0,22)	(232,2)	(1,21)	(187,2)	(-68,4)	(160,21)	(158,5)	
L1D -158>	(0,27)	(14,4)	(163,8)	(157,10)	(156,4)	(9,1)	(162,2)	(-161,2)	(-9,2)	(-61,3)	(158,53)	(308,4)	(159,28)	(1,12)	(222,3)	(-75,2)	
L1D -157>	(163,5)	(0,11)	(162,10)	(138,2)	(156,9)	(175,4)	(1,12)	(130,3)	(174,9)	(158,12)	(157,20)	(417,5)	(300,1)	(228,1)	(83,2)	(98,1)	
L1D -156>	(0,19)	(162,5)	(126,2)	(156,34)	(197,11)	(157,24)	(1,16)	(64,3)	(412,10)	(161,5)	(-32,4)	(294,5)	(-62,11)	(174,7)	(-107,1)	(-155,1)	
L1D -155>	(64,3)	(160,8)	(161,3)	(-4,3)	(155,61)	(126,2)	(0,9)	(158,3)	(98,3)	(154,9)	(156,22)	(1,8)	(-27,6)	(-166,3)	(51,1)	(-20,1)	
L1D -154>	(297,2)	(298,4)	(159,14)	(0,17)	(153,7)	(154,55)	(1,24)	(151,2)	(152,15)	(155,24)	(242,2)	(169,1)	(160,1)	(167,2)	(163,2)	(205,1)	
L1D -153>	(152,4)	(158,7)	(153,40)	(150,5)	(0,13)	(154,30)	(151,5)	(-122,2)	(159,7)	(337,3)	(84,1)	(1,18)	(-20,1)	(89,2)	(164,1)	(64,1)	
L1D -152>	(158,8)	(0,18)	(151,4)	(292,8)	(157,3)	(153,48)	(1,14)	(154,2)	(152,35)	(-247,2)	(-61,4)	(149,3)	(150,8)	(-11,2)	(264,2)	(36,1)	
L1D -151>	(0,14)	(156,3)	(117,7)	(151,31)	(152,19)	(157,11)	(1,10)	(150,4)	(154,2)	(149,4)	(-5,4)	(170,1)	(64,4)	(-21,4)	(-20,2)	(195,1)	
L1D -150>	(-6,3)	(61,4)	(0,6)	(155,6)	(156,4)	(64,3)	(151,7)	(150,15)	(-215,2)	(194,2)	(167,2)	(1,8)	(-4,2)	(-186,1)	(78,1)	(-21,1)	
L1D -149>	(-3,3)	(0,21)	(155,9)	(150,13)	(149,21)	(154,8)	(1,12)	(64,2)	(298,3)	(-92,3)	(271,5)	(-57,2)	(261,1)	(-257,1)	(4,1)	(172,1)	
L1D -148>	(64,2)	(148,21)	(154,9)	(149,55)	(153,5)	(286,3)	(0,13)	(147,4)	(-292,1)	(152,2)	(32,1)	(1,23)	(33,1)	(-12,1)	(310,1)	(258,1)	
L1D -147>	(156,5)	(148,53)	(0,26)	(153,6)	(146,5)	(147,54)	(152,12)	(109,3)	(64,2)	(1,40)	(115,4)	(88,2)	(281,9)	(22,3)	(-79,7)	(11,1)	
L1D -146>	(1,51)	(152,5)	(0,30)	(151,9)	(147,28)	(209,2)	(428,2)	(146,22)	(-185,2)	(145,5)	(-37,5)	(-77,10)	(-242,7)	(129,1)	(134,2)	(148,4)	
L1D -145>	(151,11)	(1,51)	(0,17)	(150,6)	(146,16)	(144,11)	(145,24)	(156,1)	(138,1)	(95,1)	(505,1)	(169,1)	(220,1)	(-13,1)	(21,1)	(22,2)	
L1D -144>	(0,45)	(149,9)	(143,6)	(145,31)	(144,104)	(141,2)	(142,3)	(1,25)	(140,9)	(150,4)	(83,2)	(-49,2)	(-139,2)	(222,2)	(-20,2)	(151,1)	
L1D -143>	(0,28)	(149,8)	(143,83)	(144,47)	(141,6)	(5,2)	(140,8)	(-12,2)	(148,9)	(1,12)	(-161,6)	(-164,1)	(11,1)	(21,1)	(-4,1)	(155,2)	
L1D -142>	(148,7)	(147,7)	(140,2)	(1,18)	(0,21)	(64,2)	(142,39)	(143,15)	(141,2)	(-121,2)	(-128,1)	(294,1)	(151,1)	(152,2)	(63,2)	(-52,1)	
L1D -141>	(1,32)	(0,30)	(146,5)	(-55,2)	(140,6)	(147,15)	(142,24)	(144,2)	(-49,9)	(143,2)	(141,39)	(64,2)	(21,1)	(34,2)	(137,1)	(393,1)	
L1D -140>	(145,10)	(146,10)	(0,24)	(-36,1)	(144,5)	(143,2)	(140,19)	(141,20)	(159,4)	(139,3)	(1,5)	(223,6)	(-57,24)	(-210,4)	(-171,2)	(-47,6)	
L1D -139>	(0,19)	(10,2)	(144,2)	(145,11)	(-1,3)	(136,2)	(-152,9)	(-49,4)	(1,26)	(244,2)	(-22,2)	(139,13)	(140,9)	(137,2)	(138,6)	(91,1)	
L1D -138>	(143,11)	(232,3)	(139,34)	(137,11)	(0,33)	(144,3)	(1,48)	(135,3)	(-49,6)	(138,38)	(-13,13)	(-48,5)	(374,1)	(64,1)	(146,1)	(140,1)	
L1D -137>	(142,8)	(0,25)	(143,6)	(138,66)	(137,37)	(135,11)	(136,13)	(1,60)	(-19,2)	(11,4)	(-49,4)	(-156,6)	(-56,12)	(-148,7)	(-169,1)	(237,1)	
L1D -136>	(11,7)	(130,3)	(0,44)	(147,3)	(142,11)	(134,4)	(141,14)	(10,9)	(36,2)	(136,90)	(135,11)	(-25,3)	(-1,2)	(170,7)	(137,53)	(1,46)	
L1D -135>	(0,32)	(140,9)	(11,11)	(141,5)	(135,104)	(-1,8)	(134,14)	(-68,4)	(10,5)	(1,18)	(136,57)	(130,8)	(-24,3)	(133,8)	(-248,3)	(236,1)	
L1D -134>	(10,12)	(140,5)	(415,1)	(0,35)	(11,11)	(1,6)	(135,35)	(139,10)	(133,3)	(170,3)	(-69,3)	(182,2)	(-77,8)	(143,3)	(-28,12)	(134,33)	
L1D -133>	(167,7)	(1,5)	(10,5)	(11,5)	(139,3)	(138,8)	(0,12)	(-25,3)	(50,1)	(133,29)	(214,7)	(-4,2)	(134,51)	(-147,9)	(-1,6)	(223,10)	
L1D -132>	(138,11)	(0,26)	(132,50)	(131,3)	(137,8)	(1,21)	(213,2)	(133,2)	(143,3)	(-13,3)	(469,1)	(170,4)	(10,5)	(50,2)	(-1,1)	(-122,1)	
L1D -131>	(137,9)	(112,5)	(120,2)	(131,83)	(0,30)	(132,8)	(130,5)	(170,1)	(136,13)	(-1,2)	(1,18)	(34,1)	(10,1)	(295,1)	(129,2)	(-188,1)	
L1D -130>	(0,36)	(131,34)	(130,66)	(-1,2)	(135,3)	(136,11)	(-43,3)	(129,4)	(1,18)	(112,2)	(-276,1)	(32,3)	(108,1)	(3,2)	(186,1)	(-252,1)	
L1D -129>	(130,29)	(211,52)	(0,18)	(135,6)	(134,4)	(129,33)	(-278,1)	(216,3)	(218,3)	(229,3)	(65,6)	(23,3)	(202,4)	(37,52)	(221,4)	(213,11)	
L1D -128>	(64,35)	(0,65)	(133,3)	(32,4)	(134,11)	(129,22)	(128,76)	(1,43)	(-43,3)	(119,3)	(112,7)	(127,8)	(-298,3)	(405,1)	(-31,4)	(4,6)	
L1D -127>	(1,15)	(0,34)	(128,24)	(132,15)	(32,5)	(133,7)	(6,4)	(2,4)	(-55,1)	(-2,1)	(33,1)	(112,2)	(130,1)	(126,5)	(127,30)	(155,1)	
L1D -126>	(0,35)	(32,7)	(132,8)	(125,11)	(131,9)	(126,83)	(1,29)	(-22,5)	(47,2)	(2,2)	(250,2)	(-124,1)	(5,2)	(16,1)	(-32,1)	(127,32)	
L1D -125>	(131,11)	(5,8)	(0,52)	(17,4)	(-9,3)	(1,28)	(164,3)	(125,102)	(-43,4)	(-46,7)	(130,11)	(126,69)	(124,29)	(32,3)	(96,1)	(16,2)	
L1D -124>	(129,5)	(312,3)	(32,4)	(130,2)	(123,3)	(0,25)	(5,1)	(117,1)	(125,42)	(1,22)	(131,2)	(-27,1)	(124,31)	(9,3)	(16,2)	(-130,1)	
L1D -123>	(129,5)	(17,3)	(32,3)	(122,13)	(123,90)	(125,3)	(0,33)	(1,31)	(128,19)	(-91,4)	(124,22)	(-298,1)	(11,10)	(5,6)	(121,2)	(-126,2)	
L1D -122>	(127,7)	(123,40)	(122,55)	(120,5)	(-43,4)	(128,5)	(1,21)	(0,17)	(121,6)	(-40,11)	(-149,3)	(36,1)	(-3,2)	(95,2)	(-69,2)	(44,2)	
L1D -121>	(127,5)	(121,65)	(-1,7)	(120,5)	(0,18)	(126,5)	(-45,2)	(112,1)	(118,1)	(122,17)	(1,8)	(-77,1)	(-34,1)	(-99,2)	(124,1)	(132,1)	
L1D -120>	(126,13)	(125,16)	(0,22)	(120,46)	(121,25)	(-43,4)	(119,3)	(280,2)	(131,2)	(182,3)	(-40,4)	(403,4)	(-11,2)	(276,1)	(1,10)	(384,1)	
L1D -119>	(120,17)	(0,45)	(119,83)	(124,3)	(118,9)	(159,4)	(125,8)	(202,7)	(203,2)	(1,23)	(-120,2)	(117,2)	(-9,2)	(306,1)	(-38,1)	(4,1)	
L1D -118>	(123,5)	(124,9)	(37,2)	(1,14)	(117,23)	(32,2)	(119,50)	(0,17)	(20,7)	(118,106)	(58,7)	(120,3)	(116,3)	(201,3)	(202,4)	(-83,1)	
L1D -117>	(116,12)	(0,20)	(-41,2)	(123,12)	(-16,2)	(117,75)	(122,2)	(121,2)	(22,3)	(141,3)	(1,19)	(-88,2)	(202,2)	(118,28)	(92,1)	(119,6)	
L1D -116>	(122,19)	(0,45)	(121,15)	(125,2)	(22,2)	(32,3)	(1,15)	(116,52)	(117,27)	(140,6)	(115,6)	(-11,3)	(-161,5)	(128,5)	(241,1)	(131,1)	
L1D -115>	(121,11)	(116,26)	(115,81)	(0,25)	(-149,10)	(-202,1)	(166,1)	(120,13)	(122,1)	(-40,1)	(114,16)	(32,2)	(175,1)	(-19,1)	(54,2)	(1,26)	
L1D -114>	(0,41)	(120,13)	(-81,11)	(121,2)	(119,9)	(114,36)	(1,16)	(115,11)	(32,2)	(113,2)	(-9,2)	(-52,2)	(102,1)	(94,1)	(112,1)	(77,1)	
L1D -113>	(118,10)	(119,6)	(113,37)	(0,26)	(114,23)	(21,8)	(-94,11)	(-23,8)	(-39,13)	(-146,6)	(1,10)	(20,6)	(-166,1)	(104,2)	(24,2)	(51,2)	
L1D -112>	(-134,1)	(70,2)	(21,6)	(118,9)	(0,31)	(-18,6)	(117,11)	(113,12)	(112,25)	(-2,2)	(111,3)	(-94,2)	(1,15)	(134,2)	(-19,6)	(391,4)	
L1D -111>	(111,28)	(135,6)	(0,16)	(20,6)	(117,3)	(116,19)	(21,13)	(112,6)	(203,1)	(178,10)	(104,5)	(65,7)	(32,3)	(272,9)	(1,16)	(107,2)	
L1D -110>	(115,12)	(0,21)	(21,12)	(110,54)	(-5,4)	(111,19)	(109,6)	(20,6)	(116,9)	(65,27)	(175,8)	(1,26)	(32,4)	(401,3)	(-283,1)	(280,2)	
L1D -109>	(20,26)	(1,33)	(108,11)	(0,30)	(171,7)	(115,12)	(114,10)	(110,39)	(-20,11)	(-37,9)	(109,61)	(-283,1)	(117,5)	(-9,4)	(65,28)	(77,3)	
L1D -108>	(65,79)	(1,29)	(108,73)	(-7,3)	(505,1)	(109,82)	(118,2)	(107,12)	(106,10)	(0,25)	(21,3)	(-20,7)	(-261,2)	(-153,2)	(210,6)	(114,7)	
L1D -107>	(-36,18)	(22,38)	(283,5)	(112,4)	(0,40)	(107,74)	(1,36)	(113,17)	(65,26)	(105,3)	(-270,1)	(108,40)	(43,3)	(-83,5)	(32,9)	(106,8)	
L1D -106>	(65,84)	(-42,8)	(111,5)	(107,23)	(106,88)	(-243,5)	(108,9)	(105,15)	(1,41)	(32,7)	(0,50)	(-14,5)	(-85,12)	(112,21)	(99,1)	(-45,6)	
L1D -105>	(65,92)	(111,22)	(-24,1)	(110,6)	(0,25)	(106,35)	(32,2)	(108,4)	(-20,7)	(105,55)	(-286,6)	(-61,7)	(1,15)	(-251,8)	(104,4)	(153,3)	
L1D -104>	(65,96)	(-139,3)	(110,11)	(0,40)	(32,16)	(104,47)	(105,15)	(-138,2)	(-36,1)	(1,34)	(103,4)	(132,1)	(40,1)	(34,5)	(106,1)	(109,16)	
L1D -103>	(0,42)	(-48,3)	(32,19)	(183,3)	(104,34)	(109,16)	(103,60)	(1,22)	(108,15)	(205,4)	(204,3)	(-239,3)	(-9,3)	(-45,15)	(-272,1)	(3,2)	
L1D -102>	(103,10)	(32,22)	(107,18)	(0,25)	(100,5)	(102,51)	(33,4)	(1,30)	(125,3)	(108,4)	(344,1)	(65,2)	(-123,3)	(101,7)	(-239,4)	(-11,3)	
L1D -101>	(35,4)	(154,5)	(0,23)	(-245,1)	(-108,6)	(110,4)	(102,46)	(105,3)	(-103,6)	(1,16)	(106,8)	(32,17)	(100,11)	(101,32)	(-128,3)	(36,3)	
L1D -100>	(100,47)	(106,6)	(0,21)	(-5,3)	(35,5)	(105,14)	(99,4)	(1,28)	(34,6)	(83,3)	(101,47)	(-178,5)	(277,2)	(206,2)	(32,12)	(-41,2)	
L1D -99>	(-187,1)	(35,10)	(32,9)	(0,46)	(104,15)	(105,4)	(100,60)	(-53,12)	(-90,3)	(-134,14)	(98,10)	(99,54)	(1,25)	(96,3)	(221,4)	(110,6)	
L1D -98>	(32,27)	(34,16)	(0,37)	(33,3)	(-5,4)	(174,3)	(103,20)	(104,22)	(98,82)	(99,33)	(97,10)	(1,37)	(95,3)	(96,5)	(147,1)	(-2,1)	
L1D -97>	(-31,4)	(32,45)	(0,54)	(33,8)	(102,4)	(1,28)	(97,48)	(259,4)	(-26,14)	(260,6)	(103,15)	(98,82)	(96,11)	(187,5)	(193,5)	(166,6)	
L1D -96>	(32,114)	(0,12)	(1,11)	(96,24)	(-144,1)	(159,1)	(97,8)	(102,2)	(-238,1)	(113,2)	(95,6)	(99,1)	(105,2)	(-282,1)	(110,1)	(47,1)	
L1D -95>	(1,36)	(0,36)	(96,38)	(95,118)	(32,22)	(100,6)	(-80,1)	(198,3)	(101,9)	(87,2)	(93,2)	(91,2)	(94,8)	(301,2)	(-171,3)	(-174,8)	
L1D -94>	(1,25)	(32,12)	(0,37)	(99,13)	(89,5)	(208,8)	(94,90)	(95,72)	(100,16)	(-92,3)	(149,1)	(-20,7)	(-161,2)	(-66,23)	(-10,4)	(124,6)	
L1D -93>	(32,5)	(0,36)	(1,25)	(147,2)	(288,10)	(93,47)	(99,12)	(94,9)	(92,5)	(-48,2)	(90,3)	(-228,1)	(98,12)	(104,4)	(208,1)	(-2,2)	
L1D -92>	(0,43)	(171,3)	(93,31)	(92,88)	(98,12)	(-61,4)	(32,4)	(97,21)	(1,36)	(-16,3)	(91,8)	(176,5)	(90,4)	(-55,2)	(-7,6)	(-1,2)	
L1D -91>	(1,38)	(97,4)	(-85,2)	(96,11)	(-28,3)	(92,24)	(-37,6)	(0,50)	(91,52)	(-49,3)	(-39,5)	(-34,16)	(90,23)	(-1,2)	(95,2)	(275,1)	
L1D -90>	(91,18)	(-77,5)	(95,12)	(0,34)	(1,19)	(32,5)	(-38,3)	(88,10)	(89,11)	(31,1)	(10,2)	(189,6)	(90,41)	(14,2)	(-14,2)	(97,2)	
L1D -89>	(0,68)	(89,55)	(-2,1)	(-133,5)	(1,30)	(-158,1)	(90,22)	(-1,9)	(-78,5)	(-53,1)	(-4,1)	(-153,1)	(4,1)	(200,0)	(88,8)	(-18,0)	
L1D -88>	(-1,43)	(0,29)	(-2,87)	(1,119)	(88,117)	(87,9)	(264,5)	(94,14)	(86,3)	(89,33)	(-6,2)	(36,3)	(93,8)	(10,1)	(-4,9)	(-171,8)	
L1D -87>	(1,32)	(0,33)	(-171,3)	(88,64)	(32,2)	(87,119)	(94,4)	(-10,2)	(92,7)	(85,2)	(-208,1)	(86,20)	(-41,1)	(93,7)	(133,1)	(-44,1)	
L1D -86>	(0,52)	(32,4)	(86,71)	(85,14)	(1,45)	(-9,4)	(-79,3)	(-3,4)	(92,13)	(-8,5)	(87,44)	(94,1)	(-10,8)	(-305,2)	(91,4)	(-265,2)	
L1D -85>	(4,3)	(1,27)	(345,3)	(-5,4)	(107,1)	(85,102)	(86,51)	(-1,2)	(-65,4)	(0,21)	(82,3)	(-194,4)	(192,7)	(426,3)	(91,7)	(-41,2)	
L1D -84>	(1,43)	(2,6)	(90,7)	(0,27)	(84,91)	(4,33)	(85,35)	(7,7)	(-171,1)	(-1,33)	(-4,2)	(70,2)	(5,73)	(43,2)	(89,4)	(83,5)	
L1D -83>	(2,12)	(89,3)	(-47,6)	(1,24)	(88,3)	(-1,2)	(-181,1)	(37,2)	(83,87)	(84,24)	(81,1)	(0,18)	(7,1)	(-4,5)	(191,2)	(82,5)	
L1D -82>	(1,53)	(0,60)	(82,76)	(-140,11)	(81,11)	(83,26)	(84,4)	(66,1)	(85,8)	(243,4)	(138,4)	(88,14)	(-59,7)	(87,16)	(-17,4)	(93,4)	
L1D -81>	(1,35)	(0,38)	(82,49)	(-93,11)	(81,53)	(80,6)	(-4,4)	(87,17)	(-5,3)	(84,3)	(-158,2)	(92,3)	(-210,5)	(2,5)	(86,8)	(406,7)	
L1D -80>	(4,9)	(1,50)	(0,42)	(-4,10)	(80,60)	(85,18)	(-133,4)	(79,8)	(-1,3)	(81,38)	(-14,2)	(-5,2)	(-40,9)	(-73,1)	(127,1)	(117,1)	
L1D -79>	(0,42)	(4,6)	(164,3)	(3,4)	(79,62)	(-103,8)	(1,37)	(-5,5)	(80,50)	(84,17)	(101,3)	(78,6)	(-346,1)	(-3,3)	(-12,2)	(227,6)	
L1D -78>	(83,9)	(80,2)	(232,6)	(1,35)	(78,56)	(-39,2)	(0,37)	(79,39)	(118,2)	(375,3)	(-42,4)	(77,8)	(-8,1)	(-151,1)	(44,1)	(171,2)	
L1D -77>	(-2,8)	(-8,8)	(0,53)	(77,70)	(-48,8)	(83,9)	(78,13)	(-240,1)	(1,24)	(97,3)	(76,12)	(20,7)	(19,3)	(-41,3)	(-52,11)	(82,15)	
L1D -76>	(-1,3)	(0,39)	(-98,6)	(87,4)	(-26,1)	(75,19)	(-2,2)	(76,97)	(74,6)	(81,10)	(86,4)	(-28,3)	(82,15)	(1,32)	(77,47)	(188,2)	
L1D -75>	(77,3)	(0,29)	(-2,5)	(-9,6)	(74,5)	(75,63)	(76,63)	(-6,2)	(-57,24)	(4,4)	(-66,3)	(1,27)	(-5,4)	(81,10)	(-101,2)	(-46,2)	
L1D -74>	(4,14)	(73,13)	(74,85)	(-1,12)	(-15,1)	(0,37)	(80,9)	(153,2)	(37,3)	(86,2)	(75,17)	(79,4)	(72,3)	(1,42)	(-36,2)	(32,3)	
L1D -73>	(74,36)	(73,85)	(79,8)	(-3,2)	(170,2)	(0,21)	(71,6)	(249,1)	(-53,1)	(68,2)	(1,31)	(72,16)	(-65,13)	(125,1)	(78,1)	(9,1)	
L1D -72>	(77,17)	(22,3)	(73,54)	(-1,5)	(0,47)	(72,99)	(-70,7)	(78,8)	(-8,3)	(32,4)	(1,78)	(115,3)	(71,23)	(164,1)	(83,2)	(-45,3)	
L1D -71>	(-2,18)	(0,56)	(1,54)	(76,7)	(-8,16)	(-60,6)	(72,85)	(126,3)	(77,12)	(139,1)	(71,109)	(32,5)	(-14,2)	(-13,2)	(39,3)	(70,18)	
L1D -70>	(1,45)	(76,7)	(68,3)	(38,2)	(75,4)	(69,10)	(140,3)	(0,49)	(142,3)	(-70,4)	(71,33)	(-69,4)	(2,1)	(73,1)	(32,1)	(70,113)	
L1D -69>	(68,11)	(69,85)	(-15,1)	(-1,3)	(0,36)	(4,6)	(3,4)	(37,2)	(96,3)	(-213,2)	(32,5)	(70,44)	(74,12)	(1,34)	(10,1)	(-5,1)	
L1D -68>	(4,9)	(68,121)	(73,11)	(3,6)	(32,7)	(161,1)	(1,61)	(0,70)	(36,4)	(10,3)	(69,55)	(-281,6)	(-243,6)	(67,19)	(-97,6)	(66,8)	
L1D -67>	(-179,3)	(72,5)	(66,14)	(219,1)	(4,4)	(67,85)	(0,29)	(68,70)	(-2,2)	(32,4)	(288,4)	(-21,5)	(64,4)	(-68,2)	(90,2)	(1,51)	
L1D -66>	(32,5)	(-2,5)	(-132,6)	(-26,11)	(-72,1)	(-8,6)	(1,36)	(-111,17)	(0,48)	(66,94)	(67,75)	(65,17)	(64,6)	(345,4)	(161,5)	(71,8)	
L1D -65>	(32,6)	(0,32)	(-2,5)	(33,7)	(-8,4)	(1,40)	(65,89)	(64,21)	(139,8)	(66,63)	(70,5)	(61,3)	(151,2)	(-100,1)	(-14,1)	(71,4)	
L1D -64>	(66,51)	(2,48)	(68,12)	(32,18)	(65,60)	(4,9)	(0,27)	(119,3)	(64,76)	(118,4)	(-44,3)	(-12,1)	(1,16)	(63,14)	(-43,2)	(62,3)	
L1D -63>	(4,11)	(67,64)	(64,41)	(1,31)	(-45,1)	(63,72)	(3,17)	(-4,8)	(-193,3)	(-147,7)	(0,35)	(-158,3)	(69,4)	(-18,3)	(61,7)	(62,13)	
L1D -62>	(70,24)	(3,35)	(4,8)	(-92,1)	(6,18)	(80,6)	(2,15)	(219,8)	(62,86)	(5,21)	(0,22)	(59,5)	(-61,8)	(112,8)	(67,25)	(61,7)	
L1D -61>	(11,83)	(0,37)	(-120,4)	(62,80)	(61,79)	(-225,4)	(6,22)	(70,12)	(22,7)	(17,8)	(63,6)	(247,1)	(60,12)	(66,6)	(1,45)	(68,4)	
L1D -60>	(11,42)	(73,32)	(10,44)	(-2,6)	(0,44)	(-8,7)	(7,1)	(65,7)	(66,4)	(58,6)	(60,111)	(61,57)	(59,9)	(1,42)	(22,2)	(21,2)	
L1D -59>	(75,16)	(10,83)	(-53,7)	(57,8)	(0,56)	(11,49)	(64,9)	(12,18)	(60,99)	(96,2)	(1,42)	(59,117)	(65,6)	(-304,6)	(58,26)	(62,5)	
L1D -58>	(4,12)	(3,3)	(58,94)	(11,63)	(91,1)	(31,1)	(57,22)	(59,49)	(0,33)	(-55,3)	(63,13)	(-2,3)	(-1,6)	(54,4)	(1,23)	(56,4)	
L1D -57>	(0,67)	(4,17)	(198,22)	(-16,7)	(1,94)	(-2,8)	(-62,1)	(62,26)	(54,4)	(57,100)	(-6,6)	(271,11)	(58,85)	(-5,5)	(56,16)	(133,22)	
L1D -56>	(58,6)	(55,18)	(4,6)	(-2,13)	(52,5)	(15,12)	(56,98)	(-94,8)	(61,14)	(0,49)	(1,48)	(54,7)	(93,4)	(57,84)	(194,7)	(219,5)	
L1D -55>	(-2,32)	(-68,2)	(1,101)	(14,11)	(-8,12)	(0,53)	(61,15)	(-205,20)	(60,25)	(-6,31)	(3,6)	(55,103)	(-174,6)	(91,9)	(56,54)	(54,16)	
L1D -54>	(1,41)	(22,39)	(55,26)	(19,34)	(83,38)	(21,65)	(54,93)	(85,26)	(59,11)	(-2,8)	(0,31)	(47,1)	(86,9)	(14,9)	(60,8)	(328,13)	
L1D -53>	(45,11)	(-306,1)	(1,47)	(21,15)	(153,5)	(54,30)	(53,65)	(-2,16)	(50,4)	(85,8)	(87,12)	(3,9)	(13,5)	(0,21)	(11,8)	(59,9)	
L1D -52>	(52,106)	(4,11)	(0,37)	(55,1)	(1,43)	(-2,15)	(-1,26)	(363,6)	(53,61)	(102,11)	(51,13)	(45,27)	(13,12)	(2,11)	(57,14)	(-191,8)	
L1D -51>	(-2,14)	(0,29)	(57,7)	(72,11)	(-173,1)	(51,108)	(12,15)	(-3,5)	(1,58)	(3,2)	(43,23)	(52,31)	(50,16)	(13,3)	(49,12)	(24,5)	
L1D -50>	(-10,40)	(-11,42)	(12,18)	(1,20)	(-300,1)	(4,10)	(50,95)	(19,10)	(53,7)	(83,8)	(0,36)	(48,5)	(-2,4)	(-3,2)	(51,63)	(49,37)	
L1D -49>	(282,20)	(11,32)	(-10,68)	(283,26)	(43,48)	(-2,24)	(50,97)	(1,43)	(284,12)	(-52,11)	(0,29)	(191,9)	(-8,14)	(49,43)	(-62,9)	(-94,1)	
L1D -48>	(11,76)	(-18,4)	(48,117)	(21,21)	(-290,96)	(54,19)	(24,16)	(49,29)	(0,100)	(53,13)	(-3,11)	(-46,9)	(-2,12)	(20,14)	(1,50)	(45,6)	
L1D -47>	(10,10)	(47,106)	(0,37)	(131,5)	(45,1)	(52,5)	(4,5)	(188,5)	(3,4)	(1,25)	(54,28)	(-319,5)	(-3,4)	(53,3)	(48,53)	(46,7)	
L1D -46>	(46,98)	(51,7)	(11,6)	(1,26)	(47,49)	(3,8)	(10,7)	(65,8)	(95,8)	(49,29)	(0,20)	(50,27)	(-82,5)	(172,6)	(282,1)	(21,6)	
L1D -45>	(6,69)	(9,10)	(45,105)	(0,64)	(44,28)	(-418,8)	(46,86)	(-12,21)	(-2,8)	(24,17)	(47,13)	(1,85)	(149,8)	(318,6)	(-11,1)	(3,7)	
L1D -44>	(-2,22)	(43,34)	(9,19)	(3,3)	(-3,4)	(21,3)	(1,24)	(44,76)	(42,9)	(-8,6)	(-1,8)	(13,10)	(50,36)	(41,1)	(45,38)	(0,63)	
L1D -43>	(65,33)	(27,27)	(41,10)	(1,79)	(44,127)	(9,68)	(43,88)	(8,47)	(32,50)	(-2,7)	(36,36)	(53,1)	(42,29)	(0,42)	(-42,8)	(10,19)	
L1D -42>	(30,116)	(8,40)	(38,17)	(3,37)	(42,82)	(35,1)	(43,30)	(0,53)	(65,7)	(149,11)	(36,45)	(-72,6)	(39,40)	(13,25)	(1,43)	(34,36)	
L1D -41>	(41,67)	(7,65)	(3,10)	(-3,14)	(4,20)	(65,9)	(42,45)	(1,41)	(0,65)	(46,7)	(34,5)	(91,12)	(-16,1)	(40,21)	(35,9)	(8,14)	
L1D -40>	(7,56)	(46,6)	(256,5)	(40,92)	(0,37)	(-3,5)	(39,5)	(-25,5)	(34,2)	(32,9)	(8,5)	(41,81)	(1,39)	(-12,7)	(44,4)	(-156,11)	
L1D -39>	(6,29)	(39,113)	(28,1)	(9,14)	(-4,28)	(42,48)	(38,47)	(34,20)	(-2,10)	(41,42)	(40,64)	(33,9)	(4,4)	(1,80)	(32,30)	(0,37)	
L1D -38>	(5,69)	(-19,1)	(7,18)	(1,29)	(-1,28)	(38,122)	(6,54)	(-2,8)	(39,126)	(65,6)	(-3,7)	(4,17)	(41,11)	(37,24)	(36,54)	(0,67)	
L1D -37>	(36,22)	(5,62)	(-6,102)	(-1,12)	(-11,14)	(-3,9)	(1,61)	(13,21)	(6,27)	(43,6)	(-28,3)	(26,3)	(0,50)	(38,84)	(37,121)	(-2,2)	
L1D -36>	(49,22)	(5,26)	(36,114)	(42,18)	(-33,3)	(38,11)	(1,49)	(-35,4)	(39,31)	(0,45)	(35,33)	(-59,3)	(37,66)	(34,26)	(13,3)	(41,20)	
L1D -35>	(8,4)	(35,39)	(4,5)	(36,70)	(-136,5)	(-15,2)	(0,23)	(-56,5)	(27,8)	(-3,2)	(5,4)	(29,3)	(-8,4)	(-135,2)	(1,21)	(34,16)	
L1D -34>	(31,13)	(-4,21)	(1,43)	(42,31)	(33,1)	(0,61)	(35,100)	(4,5)	(-7,5)	(36,10)	(32,13)	(28,17)	(5,5)	(34,98)	(25,30)	(-1,6)	
L1D -33>	(5,36)	(10,22)	(-5,42)	(3,22)	(249,9)	(-6,69)	(-187,1)	(29,56)	(0,107)	(2,9)	(34,107)	(1,24)	(-3,37)	(33,93)	(-2,13)	(-10,14)	
L1D -32>	(3,4)	(35,13)	(-2,4)	(0,26)	(37,1)	(32,83)	(6,5)	(1,30)	(42,5)	(-16,9)	(34,25)	(41,22)	(-328,7)	(33,102)	(30,15)	(31,11)	
L1D -31>	(1,40)	(25,24)	(-4,18)	(43,3)	(34,13)	(-3,3)	(30,27)	(13,23)	(0,26)	(32,76)	(37,6)	(33,15)	(31,61)	(-6,6)	(-21,2)	(-242,2)	
L1D -30>	(3,3)	(4,12)	(-21,2)	(30,66)	(31,57)	(0,31)	(-14,2)	(6,20)	(17,16)	(32,12)	(-22,11)	(21,6)	(-44,2)	(36,2)	(1,15)	(35,2)	
L1D -29>	(17,4)	(27,6)	(30,111)	(-17,1)	(0,44)	(21,9)	(-94,4)	(29,109)	(32,14)	(10,4)	(-26,5)	(28,12)	(31,22)	(1,71)	(33,17)	(-5,3)	
L1D -28>	(-27,4)	(0,50)	(28,95)	(34,8)	(-8,22)	(-7,10)	(1,67)	(31,29)	(27,5)	(22,29)	(16,8)	(-9,3)	(29,40)	(6,1)	(-6,4)	(30,15)	
L1D -27>	(1,83)	(-8,7)	(-2,4)	(37,1)	(4,5)	(-6,3)	(0,57)	(-138,3)	(32,4)	(28,54)	(27,113)	(26,18)	(19,7)	(31,34)	(34,7)	(-7,4)	
L1D -26>	(10,16)	(30,25)	(27,54)	(1,32)	(26,103)	(18,6)	(0,26)	(3,12)	(33,5)	(2,5)	(15,5)	(-64,8)	(-344,4)	(-66,1)	(-5,4)	(25,45)	
L1D -25>	(10,94)	(-7,51)	(28,52)	(0,42)	(283,1)	(25,83)	(-110,6)	(1,31)	(4,9)	(-13,7)	(21,27)	(23,31)	(-137,5)	(26,88)	(24,7)	(19,49)	
L1D -24>	(-38,58)	(10,6)	(11,29)	(0,99)	(25,20)	(49,3)	(-116,1)	(-14,5)	(1,26)	(5,2)	(-33,11)	(-39,2)	(-34,5)	(24,76)	(23,14)	(-29,4)	
L1D -23>	(-16,30)	(-247,10)	(0,35)	(-21,52)	(23,112)	(8,35)	(3,26)	(7,14)	(18,86)	(21,37)	(1,3)	(36,79)	(-20,21)	(22,55)	(16,103)	(-11,20)	
L1D -22>	(6,56)	(1,64)	(0,54)	(-8,4)	(22,108)	(2,10)	(21,47)	(23,40)	(-58,1)	(25,4)	(-2,5)	(-32,2)	(-24,2)	(15,27)	(20,13)	(141,3)	
L1D -21>	(21,76)	(25,4)	(1,30)	(0,41)	(-1,16)	(13,13)	(-154,3)	(19,7)	(-25,4)	(22,59)	(20,18)	(-71,1)	(27,1)	(-2,4)	(23,14)	(26,4)	
L1D -20>	(157,4)	(3,6)	(20,107)	(33,7)	(-8,2)	(43,27)	(0,44)	(19,35)	(12,19)	(-2,6)	(-12,2)	(-258,2)	(-6,17)	(-51,6)	(1,43)	(21,71)	
L1D -19>	(20,69)	(45,9)	(17,5)	(1,40)	(-32,10)	(-31,2)	(-259,10)	(19,113)	(-35,3)	(18,23)	(6,18)	(0,44)	(-81,5)	(-13,6)	(29,4)	(11,3)	
L1D -18>	(-15,33)	(89,3)	(-16,3)	(16,2)	(18,122)	(67,3)	(-4,17)	(19,49)	(0,55)	(17,27)	(1,64)	(-43,5)	(-156,1)	(11,3)	(-140,1)	(46,10)	
L1D -17>	(20,7)	(475,4)	(19,1)	(-15,3)	(15,10)	(-3,1)	(-381,1)	(1,45)	(16,28)	(17,124)	(18,59)	(8,1)	(26,1)	(2,1)	(-18,1)	(0,48)	
L1D -16>	(26,3)	(-4,8)	(-3,14)	(11,9)	(-2,4)	(15,18)	(-8,4)	(-5,7)	(28,8)	(0,31)	(1,38)	(17,50)	(-19,3)	(16,81)	(-66,1)	(-1,4)	
L1D -15>	(11,31)	(-15,47)	(17,14)	(-4,7)	(6,27)	(1,63)	(16,58)	(-92,6)	(44,18)	(0,48)	(37,1)	(15,107)	(14,18)	(-3,16)	(25,18)	(21,6)	
L1D -14>	(14,73)	(3,7)	(1,48)	(-3,4)	(16,3)	(25,3)	(-318,1)	(29,6)	(0,30)	(15,31)	(13,15)	(8,7)	(7,6)	(6,7)	(-5,3)	(-212,5)	
L1D -13>	(0,51)	(13,80)	(-15,2)	(-6,2)	(35,2)	(11,5)	(1,53)	(12,22)	(32,6)	(14,44)	(-48,2)	(-8,3)	(9,1)	(39,1)	(24,5)	(-10,6)	
L1D -12>	(8,74)	(-20,11)	(12,108)	(11,62)	(3,7)	(1,69)	(-6,6)	(6,13)	(-13,4)	(-116,6)	(-435,1)	(-225,14)	(-3,6)	(-44,11)	(13,96)	(0,58)	
L1D -11>	(-76,5)	(1,61)	(-5,11)	(11,112)	(10,15)	(-8,4)	(18,4)	(25,1)	(0,46)	(15,12)	(20,28)	(-3,2)	(12,58)	(-6,5)	(-1,3)	(36,2)	
L1D -10>	(11,78)	(16,14)	(10,114)	(2,17)	(0,46)	(6,10)	(-46,6)	(34,12)	(-47,15)	(4,4)	(-7,6)	(8,8)	(1,67)	(9,47)	(-55,1)	(97,4)	
L1D -9>	(1,53)	(9,85)	(-48,4)	(2,9)	(12,2)	(13,1)	(42,2)	(-13,2)	(4,3)	(-32,1)	(6,9)	(7,4)	(8,22)	(-31,1)	(0,21)	(10,32)	
L1D -8>	(9,67)	(34,4)	(8,112)	(-33,3)	(2,14)	(1,57)	(-13,3)	(-1,10)	(-49,11)	(-2,5)	(13,8)	(0,54)	(7,29)	(-158,2)	(-12,1)	(6,19)	
L1D -7>	(-34,1)	(10,0)	(9,88)	(-49,0)	(5,0)	(8,10)	(17,0)	(-2,0)	(7,8)	(-1,1)	(1,2)	(0,4)	(6,2)	(-51,0)	(-35,0)	(26,0)	
L1D -6>	(0,47)	(-146,4)	(7,33)	(3,1)	(10,3)	(2,6)	(1,40)	(-4,3)	(-112,4)	(-138,2)	(4,10)	(8,17)	(6,72)	(9,18)	(5,27)	(-2,13)	
L1D -5>	(-21,0)	(-19,1)	(6,1)	(2,1)	(-8,2)	(-51,0)	(0,2)	(1,5)	(3,83)	(-6,0)	(-2,0)	(8,0)	(-52,0)	(5,4)	(4,1)	(7,0)	
L1D -4>	(-20,3)	(5,2)	(9,1)	(-6,1)	(-25,2)	(-1,117)	(8,2)	(3,2)	(4,4)	(1,4)	(-314,2)	(7,6)	(2,122)	(0,8)	(-8,3)	(-4,2)	
L1D -3>	(3,121)	(-25,0)	(-2,0)	(9,0)	(-33,0)	(0,0)	(-21,0)	(5,0)	(1,2)	(-1,2)	(-24,0)	(-3,0)	(2,0)	(-37,0)	(-38,0)	(-39,0)	
L1D -2>	(1,63)	(-1,110)	(2,116)	(-11,1)	(-248,1)	(-4,1)	(0,91)	(3,53)	(32,0)	(94,0)	(-20,0)	(-2,1)	(13,0)	(5,0)	(-17,1)	(-26,2)	
L1D -1>	(-1,99)	(-38,1)	(-21,1)	(0,71)	(-73,2)	(-25,1)	(1,33)	(-7,85)	(-63,1)	(9,0)	(10,1)	(-11,0)	(-44,0)	(2,121)	(3,0)	(-40,0)	
L1D 0>	(0,88)	(149,1)	(10,1)	(-6,1)	(-47,1)	(-8,6)	(8,3)	(-1,17)	(1,44)	(-63,1)	(-5,1)	(-7,3)	(348,1)	(358,1)	(-46,1)	(-2,6)	
L1D 1>	(-8,2)	(-2,16)	(8,1)	(1,83)	(7,3)	(15,1)	(-42,1)	(171,0)	(-1,20)	(96,0)	(-239,0)	(0,67)	(-33,0)	(170,0)	(-35,2)	(-9,0)	
L1D 2>	(-5,21)	(-7,1)	(-2,84)	(0,4)	(4,1)	(-36,0)	(-1,81)	(-4,34)	(3,8)	(-12,0)	(-3,62)	(34,0)	(8,1)	(2,2)	(223,0)	(1,2)	
L1D 3>	(-3,67)	(-40,1)	(-2,112)	(-8,1)	(0,2)	(-41,1)	(1,5)	(-1,3)	(-5,4)	(4,0)	(-6,0)	(8,0)	(-7,0)	(-84,0)	(2,104)	(-4,12)	
L1D 4>	(0,91)	(5,31)	(1,90)	(-8,27)	(-3,19)	(-7,7)	(-4,59)	(-1,24)	(-5,13)	(-10,7)	(-2,17)	(-11,2)	(-6,13)	(-21,2)	(3,10)	(-45,2)	
L1D 5>	(1,75)	(0,111)	(-3,12)	(-97,4)	(-39,23)	(145,1)	(-6,49)	(2,73)	(-1,57)	(-10,4)	(-9,3)	(-16,3)	(-2,32)	(-4,55)	(-5,108)	(32,17)	
L1D 6>	(0,65)	(16,5)	(8,3)	(-1,25)	(-4,15)	(-5,42)	(-6,38)	(-8,1)	(-2,14)	(5,7)	(-25,1)	(33,10)	(34,9)	(1,36)	(3,16)	(-16,1)	
L1D 7>	(-13,1)	(-26,5)	(-6,77)	(-7,102)	(1,98)	(34,13)	(35,18)	(-4,21)	(-12,7)	(3,25)	(0,101)	(-8,19)	(-2,30)	(-1,59)	(-15,3)	(-3,8)	
L1D 8>	(1,35)	(-6,16)	(33,4)	(-3,11)	(-9,11)	(3,34)	(-8,79)	(-7,42)	(-1,84)	(35,6)	(36,5)	(0,55)	(-21,3)	(-30,2)	(16,1)	(-2,25)	
L1D 9>	(-9,2)	(241,1)	(-10,0)	(-11,0)	(-3,0)	(0,3)	(-1,84)	(1,0)	(-2,1)	(-45,0)	(25,0)	(2,0)	(139,0)	(-12,0)	(-64,0)	(-8,3)	
L1D 10>	(-6,25)	(0,87)	(-7,9)	(3,9)	(-2,47)	(1,31)	(-9,80)	(-1,116)	(7,12)	(-17,12)	(-10,90)	(-271,1)	(-5,3)	(-3,12)	(-11,11)	(-23,17)	
L1D 11>	(46,1)	(3,20)	(-14,34)	(21,12)	(22,2)	(-11,83)	(-6,20)	(0,115)	(-20,5)	(-15,4)	(-2,11)	(-1,70)	(154,5)	(-10,73)	(1,53)	(-5,8)	
L1D 12>	(-9,59)	(-1,37)	(-12,104)	(1,97)	(-13,22)	(5,10)	(0,112)	(-8,1)	(-14,4)	(13,8)	(-36,3)	(-18,5)	(-3,6)	(-10,24)	(-6,40)	(-11,70)	
L1D 13>	(20,19)	(13,9)	(-2,11)	(-1,26)	(1,41)	(-13,66)	(22,1)	(-7,3)	(-4,4)	(-12,53)	(0,60)	(-9,8)	(27,9)	(30,10)	(-5,13)	(-24,2)	
L1D 14>	(-1,34)	(1,35)	(-13,64)	(-14,65)	(-6,5)	(0,82)	(20,9)	(-223,2)	(-17,10)	(-5,4)	(-10,6)	(-12,1)	(-7,6)	(-15,6)	(41,1)	(-2,21)	
L1D 15>	(-6,26)	(0,84)	(1,72)	(-17,9)	(-26,58)	(-8,17)	(-1,28)	(-5,13)	(20,9)	(-3,12)	(-31,2)	(-10,4)	(-14,56)	(3,5)	(-15,59)	(-7,8)	
L1D 16>	(32,27)	(-35,3)	(31,3)	(-20,59)	(-15,44)	(-2,4)	(-17,20)	(-1,22)	(1,56)	(0,68)	(-173,1)	(-29,2)	(-16,45)	(-21,47)	(-22,7)	(-23,4)	
L1D 17>	(-11,22)	(18,5)	(-24,4)	(1,40)	(-1,36)	(-23,6)	(-9,13)	(-17,76)	(-16,54)	(-6,3)	(-32,2)	(-18,4)	(-2,12)	(-40,1)	(-19,1)	(0,63)	
L1D 18>	(-15,40)	(-6,11)	(-1,21)	(-17,83)	(-18,86)	(1,47)	(18,29)	(-11,40)	(12,6)	(0,103)	(-2,11)	(-13,5)	(101,1)	(39,25)	(27,12)	(-25,6)	
L1D 19>	(-20,13)	(-43,15)	(-26,7)	(-38,24)	(1,63)	(-1,26)	(0,73)	(-9,7)	(-18,49)	(-33,1)	(2,4)	(-19,82)	(-2,17)	(-32,14)	(-16,6)	(-34,4)	
L1D 20>	(-7,26)	(-4,21)	(-26,17)	(-16,9)	(-43,48)	(-34,2)	(1,25)	(-21,29)	(-14,4)	(0,75)	(-19,76)	(-33,10)	(-13,6)	(-8,15)	(-20,60)	(23,8)	
L1D 21>	(-2,15)	(-15,9)	(-22,11)	(-45,1)	(-20,80)	(2,5)	(-8,18)	(1,39)	(-34,40)	(-21,80)	(-298,8)	(-43,14)	(3,9)	(-26,9)	(22,4)	(0,79)	
L1D 22>	(12,37)	(-43,13)	(-108,33)	(-35,3)	(65,19)	(-3,9)	(-21,92)	(18,4)	(-16,51)	(-5,18)	(20,9)	(0,78)	(-22,86)	(-2,24)	(1,36)	(3,35)	
L1D 23>	(-23,113)	(-22,111)	(0,122)	(-46,31)	(-4,32)	(-1,37)	(65,32)	(-45,87)	(-31,76)	(-20,31)	(-44,61)	(-36,2)	(2,15)	(1,73)	(18,9)	(-8,109)	
L1D 24>	(-1,20)	(-25,41)	(-63,1)	(-6,9)	(-23,34)	(0,37)	(29,5)	(-3,3)	(27,2)	(-24,110)	(-28,2)	(-16,4)	(7,2)	(12,3)	(1,38)	(-7,3)	
L1D 25>	(-25,113)	(-1,20)	(-180,5)	(0,71)	(1,53)	(-38,93)	(-27,1)	(-14,9)	(-9,5)	(-4,31)	(-49,36)	(-26,14)	(-24,41)	(-19,5)	(-2,7)	(-13,3)	
L1D 26>	(-9,59)	(0,76)	(-2,4)	(-21,1)	(5,2)	(-25,25)	(-64,2)	(-1,13)	(-26,62)	(-32,8)	(-27,21)	(-6,4)	(1,34)	(-50,16)	(-24,2)	(-39,36)	
L1D 27>	(-9,33)	(1,50)	(-17,6)	(-6,4)	(-5,5)	(-27,67)	(-22,1)	(0,60)	(-11,5)	(-343,4)	(-26,52)	(-32,8)	(-28,12)	(5,14)	(-16,3)	(-1,29)	
L1D 28>	(43,1)	(-28,55)	(-1,33)	(-15,6)	(13,3)	(-27,76)	(-29,6)	(-36,43)	(-35,17)	(-2,18)	(-6,17)	(-34,13)	(8,4)	(0,92)	(-7,7)	(1,27)	
L1D 29>	(-7,109)	(-34,26)	(0,59)	(-24,16)	(-42,42)	(-11,1)	(-28,82)	(-2,12)	(2,4)	(-8,5)	(-25,13)	(-22,9)	(-1,28)	(1,62)	(-31,28)	(-29,78)	
L1D 30>	(-20,51)	(-1,6)	(-54,6)	(-6,10)	(0,96)	(-36,12)	(1,28)	(-35,5)	(-29,27)	(-30,41)	(5,10)	(-32,5)	(-31,28)	(-28,12)	(-22,4)	(-44,5)	
L1D 31>	(-31,50)	(-27,3)	(0,64)	(-30,31)	(8,21)	(-34,11)	(-26,12)	(-277,0)	(-1,10)	(1,30)	(-28,6)	(-35,8)	(-2,4)	(-10,4)	(-37,2)	(-44,19)	
L1D 32>	(0,84)	(32,36)	(-40,7)	(-96,5)	(-12,3)	(-47,3)	(-37,37)	(-32,48)	(-38,15)	(-20,7)	(-128,1)	(-1,16)	(-31,46)	(1,57)	(-2,4)	(-25,7)	
L1D 33>	(32,4)	(8,1)	(-29,5)	(-45,17)	(-41,8)	(0,102)	(-39,75)	(3,7)	(-1,35)	(9,9)	(-38,42)	(-33,49)	(-40,5)	(-42,7)	(-32,47)	(1,36)	
L1D 34>	(0,41)	(-44,5)	(34,6)	(-26,4)	(-33,26)	(-16,1)	(-41,16)	(-36,7)	(1,32)	(-40,19)	(-28,8)	(-34,79)	(-2,3)	(-42,10)	(-1,33)	(-35,5)	
L1D 35>	(32,3)	(-2,18)	(0,124)	(-45,26)	(6,1)	(-42,48)	(-38,16)	(-43,23)	(-35,98)	(-39,17)	(-34,77)	(25,2)	(3,31)	(1,52)	(-30,11)	(-1,30)	
L1D 36>	(-33,6)	(1,29)	(-66,1)	(0,81)	(-1,33)	(5,30)	(-35,54)	(-30,20)	(-39,5)	(-36,113)	(-15,8)	(-44,15)	(-45,5)	(9,8)	(-28,29)	(-31,13)	
L1D 37>	(-36,114)	(0,104)	(-129,30)	(-2,11)	(-1,26)	(-42,1)	(1,45)	(-5,5)	(11,4)	(5,11)	(-34,5)	(-37,86)	(32,7)	(-46,6)	(-43,9)	(-49,4)	
L1D 38>	(-1,16)	(-49,11)	(-44,1)	(0,85)	(4,18)	(-39,115)	(-42,67)	(1,51)	(6,5)	(-48,19)	(-5,29)	(-37,68)	(-51,5)	(-38,116)	(-29,11)	(-129,21)	
L1D 39>	(0,96)	(-38,48)	(-62,7)	(-6,19)	(-41,1)	(-22,6)	(-30,18)	(-50,4)	(6,10)	(-39,83)	(-31,41)	(-7,16)	(3,11)	(-1,16)	(1,18)	(2,17)	
L1D 40>	(-4,50)	(0,46)	(-20,4)	(-52,11)	(-40,46)	(-39,69)	(-57,3)	(-6,9)	(-55,4)	(-53,13)	(1,25)	(-33,1)	(-2,8)	(-1,25)	(-70,2)	(6,3)	
L1D 41>	(-38,9)	(1,24)	(6,2)	(0,43)	(4,2)	(-42,2)	(-43,1)	(-40,36)	(-37,1)	(-2,10)	(-34,6)	(11,1)	(-46,1)	(-41,76)	(-3,1)	(-1,9)	
L1D 42>	(-56,1)	(65,7)	(-33,20)	(1,127)	(-4,72)	(-41,42)	(-6,17)	(0,112)	(-39,10)	(-34,80)	(-1,25)	(2,13)	(-25,7)	(-9,8)	(-2,7)	(-42,76)	
L1D 43>	(-44,9)	(0,78)	(-2,6)	(-32,98)	(-42,43)	(1,50)	(-25,12)	(-23,14)	(-1,18)	(-152,1)	(-12,16)	(-4,73)	(-31,5)	(-39,6)	(-43,66)	(-18,4)	
L1D 44>	(-42,81)	(65,8)	(0,76)	(-12,9)	(-33,44)	(-322,1)	(-69,3)	(-45,6)	(-44,104)	(9,4)	(-43,49)	(-2,7)	(1,51)	(13,21)	(-1,22)	(-39,3)	
L1D 45>	(-42,12)	(-45,114)	(-23,27)	(-1,47)	(-22,7)	(0,61)	(12,1)	(-44,76)	(-28,6)	(-5,6)	(-43,6)	(-7,23)	(3,4)	(1,33)	(-36,10)	(-4,7)	
L1D 46>	(-46,117)	(-60,18)	(-59,17)	(-49,61)	(-41,1)	(-47,5)	(0,36)	(-1,7)	(-23,5)	(1,26)	(-35,48)	(11,12)	(7,9)	(-38,13)	(-44,2)	(-45,72)	
L1D 47>	(-61,9)	(-47,84)	(-50,39)	(-24,2)	(-60,9)	(-46,36)	(0,45)	(3,2)	(-36,80)	(1,26)	(-78,2)	(10,8)	(-1,6)	(-48,12)	(157,4)	(-43,3)	
L1D 48>	(-47,66)	(-45,6)	(0,124)	(-48,38)	(-5,7)	(22,4)	(3,4)	(157,5)	(-2,4)	(-1,7)	(6,6)	(1,35)	(5,13)	(-175,1)	(-140,2)	(-37,7)	
L1D 49>	(-34,83)	(-72,3)	(-37,26)	(-38,48)	(-30,3)	(4,4)	(-49,13)	(-50,4)	(0,57)	(8,4)	(1,37)	(-29,3)	(-48,32)	(-32,8)	(-157,3)	(-102,2)	
L1D 50>	(0,81)	(-50,119)	(-47,9)	(-2,12)	(-6,5)	(5,4)	(1,45)	(-39,127)	(-1,39)	(-11,7)	(-49,105)	(-51,10)	(2,14)	(-60,2)	(-48,3)	(3,5)	
L1D 51>	(-51,90)	(-48,9)	(-2,15)	(0,90)	(-50,122)	(6,17)	(-40,8)	(-74,3)	(1,60)	(-53,8)	(2,4)	(-52,3)	(-35,6)	(-61,1)	(-1,15)	(-54,7)	
L1D 52>	(6,6)	(-49,9)	(-53,12)	(1,50)	(-52,97)	(-1,25)	(-35,4)	(-7,1)	(0,82)	(-51,53)	(-2,16)	(-95,4)	(-3,3)	(2,9)	(-41,12)	(27,3)	
L1D 53>	(1,61)	(-49,8)	(0,83)	(-53,59)	(-50,12)	(-35,13)	(6,16)	(-1,29)	(-52,52)	(-54,1)	(-4,7)	(-62,7)	(-42,34)	(11,6)	(-2,6)	(4,24)	
L1D 54>	(-59,3)	(-54,86)	(1,116)	(-6,3)	(-51,4)	(-5,7)	(0,32)	(-11,3)	(-53,46)	(-2,5)	(-36,3)	(3,7)	(305,1)	(2,3)	(-1,10)	(-223,2)	
L1D 55>	(-6,5)	(-123,6)	(-2,4)	(-55,68)	(0,54)	(1,37)	(-16,4)	(-54,55)	(-18,4)	(-84,4)	(-1,17)	(-136,5)	(5,10)	(-28,4)	(-277,1)	(-57,5)	
L1D 56>	(5,5)	(0,74)	(1,40)	(-4,5)	(-56,61)	(-3,2)	(-2,5)	(-57,10)	(2,2)	(-60,3)	(-128,3)	(-55,51)	(-1,21)	(-73,2)	(-110,2)	(-123,3)	
L1D 57>	(-57,61)	(-60,10)	(5,4)	(0,86)	(-54,3)	(-179,3)	(-56,67)	(1,48)	(22,3)	(-12,1)	(16,2)	(6,4)	(-1,16)	(-128,4)	(-2,6)	(-3,6)	
L1D 58>	(-54,9)	(5,6)	(1,58)	(-57,84)	(-1,37)	(0,107)	(-87,1)	(-59,14)	(3,5)	(4,9)	(-63,6)	(-55,3)	(-58,74)	(6,3)	(-2,12)	(60,6)	
L1D 59>	(0,84)	(-19,13)	(1,36)	(11,6)	(3,10)	(5,12)	(-65,4)	(-56,4)	(-59,86)	(6,8)	(-88,1)	(-57,7)	(-22,14)	(-58,57)	(-2,9)	(-1,16)	
L1D 60>	(-6,5)	(-256,5)	(6,6)	(-5,11)	(1,29)	(0,80)	(-29,5)	(-60,117)	(-59,99)	(-2,13)	(-1,27)	(-66,5)	(-99,2)	(-21,3)	(-16,4)	(-35,4)	
L1D 61>	(-61,81)	(1,24)	(-1,14)	(0,47)	(-3,5)	(-60,79)	(-78,5)	(5,8)	(-11,6)	(6,6)	(-111,1)	(4,4)	(-8,3)	(-100,5)	(65,4)	(-62,2)	
L1D 62>	(2,6)	(-62,98)	(1,34)	(0,64)	(-61,78)	(-2,14)	(-18,8)	(-4,6)	(-20,1)	(6,10)	(-1,19)	(-3,2)	(-49,2)	(-14,2)	(-71,5)	(-23,2)	
L1D 63>	(1,58)	(6,10)	(-63,48)	(0,92)	(-1,12)	(16,4)	(-64,9)	(-62,22)	(-17,4)	(-210,5)	(-4,4)	(2,6)	(-179,1)	(-103,5)	(-27,3)	(65,44)	
L1D 64>	(1,65)	(-63,38)	(-104,0)	(150,1)	(-34,1)	(65,6)	(4,6)	(2,5)	(-1,14)	(0,60)	(-127,1)	(6,2)	(64,19)	(-32,2)	(-64,58)	(-2,4)	
L1D 65>	(-64,66)	(65,2)	(0,34)	(-127,1)	(-63,5)	(-62,4)	(-109,1)	(2,3)	(1,13)	(-1,10)	(-65,26)	(-2,3)	(-60,1)	(-200,1)	(-67,1)	(-78,0)	
L1D 66>	(-62,75)	(-59,41)	(2,115)	(5,32)	(-60,40)	(-111,9)	(-110,8)	(-66,75)	(-76,1)	(-1,26)	(-2,10)	(-203,6)	(1,39)	(-65,93)	(0,94)	(16,6)	
L1D 67>	(-59,12)	(1,43)	(-67,67)	(4,74)	(17,5)	(-50,31)	(-66,97)	(-47,5)	(-123,4)	(-60,10)	(5,23)	(0,53)	(-68,4)	(-1,20)	(-89,4)	(-48,3)	
L1D 68>	(5,26)	(0,78)	(-68,81)	(-67,112)	(-58,11)	(-59,15)	(-36,2)	(-70,5)	(1,42)	(-48,5)	(-69,4)	(6,3)	(-113,5)	(4,3)	(17,8)	(16,5)	
L1D 69>	(10,18)	(-54,100)	(11,4)	(-53,26)	(1,39)	(-1,21)	(-118,5)	(-70,9)	(0,67)	(-68,61)	(-2,6)	(-69,80)	(-109,4)	(-60,1)	(-23,3)	(-12,3)	
L1D 70>	(-54,42)	(0,50)	(-53,11)	(-2,13)	(-1,14)	(-70,78)	(6,3)	(5,7)	(-72,3)	(-75,3)	(10,4)	(-69,45)	(1,37)	(-5,1)	(-16,2)	(-151,2)	
L1D 71>	(1,42)	(-70,40)	(-5,5)	(-71,60)	(6,12)	(0,81)	(-1,33)	(-36,4)	(-27,3)	(-2,6)	(-6,5)	(5,7)	(-49,3)	(-73,3)	(-34,1)	(-79,5)	
L1D 72>	(6,8)	(-72,76)	(-269,2)	(-14,32)	(-63,5)	(-71,79)	(-18,5)	(-158,4)	(1,45)	(0,75)	(-1,11)	(-2,5)	(-20,11)	(-31,3)	(-70,2)	(-119,2)	
L1D 73>	(0,77)	(-73,111)	(-48,102)	(-72,56)	(-375,2)	(-130,2)	(-2,10)	(1,40)	(-70,5)	(-37,17)	(-485,2)	(6,3)	(-1,18)	(-29,2)	(-74,6)	(-249,2)	
L1D 74>	(-74,46)	(-73,70)	(-63,1)	(21,26)	(20,59)	(1,35)	(6,5)	(-43,21)	(0,56)	(-75,8)	(-1,13)	(-2,7)	(5,6)	(-266,3)	(-70,3)	(-44,3)	
[...]
L1D 478>	(-247,1)	(-431,1)	(-227,1)	(-67,1)	(0,6)	(1,3)	(-478,1)	(1,0)	(1,0)	(1,0)	(1,0)	(1,0)	(1,0)	(1,0)	(1,0)	(1,0)	
L1D 479>	(0,2)	(-277,1)	(-203,1)	(-390,1)	(-311,1)	(-235,1)	(1,1)	(-317,1)	(-302,1)	(-376,1)	(-470,1)	(-478,2)	(1,0)	(1,0)	(1,0)	(1,0)	
L1D 480>	(-247,1)	(1,2)	(0,1)	(1,0)	(1,0)	(1,0)	(1,0)	(1,0)	(1,0)	(1,0)	(1,0)	(1,0)	(1,0)	(1,0)	(1,0)	(1,0)	
L1D 481>	(-481,1)	(-340,1)	(-243,1)	(-102,1)	(1,1)	(-480,1)	(1,0)	(1,0)	(1,0)	(1,0)	(1,0)	(1,0)	(1,0)	(1,0)	(1,0)	(1,0)	
L1D 482>	(-414,1)	(0,1)	(1,1)	(-260,1)	(-196,1)	(1,0)	(1,0)	(1,0)	(1,0)	(1,0)	(1,0)	(1,0)	(1,0)	(1,0)	(1,0)	(1,0)	
L1D 483>	(-355,1)	(-102,1)	(-232,1)	(1,0)	(1,0)	(1,0)	(1,0)	(1,0)	(1,0)	(1,0)	(1,0)	(1,0)	(1,0)	(1,0)	(1,0)	(1,0)	
L1D 484>	(-430,1)	(-232,1)	(0,1)	(1,0)	(1,0)	(1,0)	(1,0)	(1,0)	(1,0)	(1,0)	(1,0)	(1,0)	(1,0)	(1,0)	(1,0)	(1,0)	
L1D 485>	(0,2)	(-272,1)	(-231,1)	(1,0)	(1,0)	(1,0)	(1,0)	(1,0)	(1,0)	(1,0)	(1,0)	(1,0)	(1,0)	(1,0)	(1,0)	(1,0)	
L1D 486>	(-398,1)	(-6,1)	(-486,12)	(-485,3)	(-1,1)	(0,8)	(1,2)	(1,0)	(1,0)	(1,0)	(1,0)	(1,0)	(1,0)	(1,0)	(1,0)	(1,0)	
L1D 487>	(0,1)	(-290,1)	(-374,1)	(-486,10)	(1,0)	(1,0)	(1,0)	(1,0)	(1,0)	(1,0)	(1,0)	(1,0)	(1,0)	(1,0)	(1,0)	(1,0)	
L1D 488>	(1,2)	(-396,1)	(-468,1)	(-127,1)	(1,0)	(1,0)	(1,0)	(1,0)	(1,0)	(1,0)	(1,0)	(1,0)	(1,0)	(1,0)	(1,0)	(1,0)	
L1D 489>	(0,1)	(-309,1)	(-296,1)	(-445,1)	(-397,1)	(1,0)	(1,0)	(1,0)	(1,0)	(1,0)	(1,0)	(1,0)	(1,0)	(1,0)	(1,0)	(1,0)	
L1D 490>	(-256,1)	(-407,1)	(-233,1)	(0,1)	(-1,1)	(-489,1)	(1,0)	(1,0)	(1,0)	(1,0)	(1,0)	(1,0)	(1,0)	(1,0)	(1,0)	(1,0)	
L1D 491>	(-286,1)	(-406,1)	(0,1)	(-91,1)	(1,0)	(1,0)	(1,0)	(1,0)	(1,0)	(1,0)	(1,0)	(1,0)	(1,0)	(1,0)	(1,0)	(1,0)	
L1D 492>	(1,1)	(-388,1)	(1,0)	(1,0)	(1,0)	(1,0)	(1,0)	(1,0)	(1,0)	(1,0)	(1,0)	(1,0)	(1,0)	(1,0)	(1,0)	(1,0)	
L1D 493>	(1,0)	(1,0)	(1,0)	(1,0)	(1,0)	(1,0)	(1,0)	(1,0)	(1,0)	(1,0)	(1,0)	(1,0)	(1,0)	(1,0)	(1,0)	(1,0)	
L1D 494>	(-494,1)	(1,0)	(1,0)	(1,0)	(1,0)	(1,0)	(1,0)	(1,0)	(1,0)	(1,0)	(1,0)	(1,0)	(1,0)	(1,0)	(1,0)	(1,0)	
L1D 495>	(1,0)	(1,0)	(1,0)	(1,0)	(1,0)	(1,0)	(1,0)	(1,0)	(1,0)	(1,0)	(1,0)	(1,0)	(1,0)	(1,0)	(1,0)	(1,0)	
L1D 496>	(-251,1)	(-204,1)	(1,1)	(0,1)	(1,0)	(1,0)	(1,0)	(1,0)	(1,0)	(1,0)	(1,0)	(1,0)	(1,0)	(1,0)	(1,0)	(1,0)	
L1D 497>	(-280,1)	(-240,1)	(-222,1)	(1,0)	(1,0)	(1,0)	(1,0)	(1,0)	(1,0)	(1,0)	(1,0)	(1,0)	(1,0)	(1,0)	(1,0)	(1,0)	
L1D 498>	(-393,1)	(-332,1)	(1,0)	(1,0)	(1,0)	(1,0)	(1,0)	(1,0)	(1,0)	(1,0)	(1,0)	(1,0)	(1,0)	(1,0)	(1,0)	(1,0)	
L1D 499>	(0,1)	(1,0)	(1,0)	(1,0)	(1,0)	(1,0)	(1,0)	(1,0)	(1,0)	(1,0)	(1,0)	(1,0)	(1,0)	(1,0)	(1,0)	(1,0)	
L1D 500>	(1,0)	(1,0)	(1,0)	(1,0)	(1,0)	(1,0)	(1,0)	(1,0)	(1,0)	(1,0)	(1,0)	(1,0)	(1,0)	(1,0)	(1,0)	(1,0)	
L1D 501>	(-15,6)	(-406,1)	(1,0)	(1,0)	(1,0)	(1,0)	(1,0)	(1,0)	(1,0)	(1,0)	(1,0)	(1,0)	(1,0)	(1,0)	(1,0)	(1,0)	
L1D 502>	(-263,1)	(-243,1)	(-304,1)	(-334,1)	(1,1)	(1,0)	(1,0)	(1,0)	(1,0)	(1,0)	(1,0)	(1,0)	(1,0)	(1,0)	(1,0)	(1,0)	
L1D 503>	(1,0)	(1,0)	(1,0)	(1,0)	(1,0)	(1,0)	(1,0)	(1,0)	(1,0)	(1,0)	(1,0)	(1,0)	(1,0)	(1,0)	(1,0)	(1,0)	
L1D 504>	(0,1)	(1,0)	(1,0)	(1,0)	(1,0)	(1,0)	(1,0)	(1,0)	(1,0)	(1,0)	(1,0)	(1,0)	(1,0)	(1,0)	(1,0)	(1,0)	
L1D 505>	(-436,1)	(-9,1)	(-322,1)	(-2,1)	(1,0)	(1,0)	(1,0)	(1,0)	(1,0)	(1,0)	(1,0)	(1,0)	(1,0)	(1,0)	(1,0)	(1,0)	
L1D 506>	(-231,1)	(-2,1)	(1,0)	(1,0)	(1,0)	(1,0)	(1,0)	(1,0)	(1,0)	(1,0)	(1,0)	(1,0)	(1,0)	(1,0)	(1,0)	(1,0)	
L1D 507>	(1,0)	(1,0)	(1,0)	(1,0)	(1,0)	(1,0)	(1,0)	(1,0)	(1,0)	(1,0)	(1,0)	(1,0)	(1,0)	(1,0)	(1,0)	(1,0)	
L1D 508>	(1,0)	(1,0)	(1,0)	(1,0)	(1,0)	(1,0)	(1,0)	(1,0)	(1,0)	(1,0)	(1,0)	(1,0)	(1,0)	(1,0)	(1,0)	(1,0)	
L1D 509>	(-474,1)	(1,0)	(1,0)	(1,0)	(1,0)	(1,0)	(1,0)	(1,0)	(1,0)	(1,0)	(1,0)	(1,0)	(1,0)	(1,0)	(1,0)	(1,0)	
L1D 510>	(1,0)	(1,0)	(1,0)	(1,0)	(1,0)	(1,0)	(1,0)	(1,0)	(1,0)	(1,0)	(1,0)	(1,0)	(1,0)	(1,0)	(1,0)	(1,0)	
L1D 511>	(1,0)	(1,0)	(1,0)	(1,0)	(1,0)	(1,0)	(1,0)	(1,0)	(1,0)	(1,0)	(1,0)	(1,0)	(1,0)	(1,0)	(1,0)	(1,0)	

L2C -64>	(2,31)	(6,12)	(1,149)	(-1,73)	(-3,69)	(-5,68)	(0,190)	(-20,11)	(3,23)	(16,14)	(-4,30)	(-2,45)	(-34,1)	(-12,13)	(-9,12)	(12,13)	
L2C -63>	(22,1)	(61,1)	(38,1)	(46,1)	(1,0)	(1,0)	(1,0)	(1,0)	(1,0)	(1,0)	(1,0)	(1,0)	(1,0)	(1,0)	(1,0)	(1,0)	
L2C -62>	(1,3)	(7,1)	(25,1)	(34,1)	(61,1)	(1,0)	(1,0)	(1,0)	(1,0)	(1,0)	(1,0)	(1,0)	(1,0)	(1,0)	(1,0)	(1,0)	
L2C -61>	(1,2)	(31,1)	(19,1)	(4,1)	(1,0)	(1,0)	(1,0)	(1,0)	(1,0)	(1,0)	(1,0)	(1,0)	(1,0)	(1,0)	(1,0)	(1,0)	
L2C -60>	(1,4)	(27,1)	(0,1)	(33,1)	(59,1)	(1,0)	(1,0)	(1,0)	(1,0)	(1,0)	(1,0)	(1,0)	(1,0)	(1,0)	(1,0)	(1,0)	
L2C -59>	(13,1)	(1,5)	(0,2)	(46,1)	(18,1)	(30,1)	(28,2)	(-3,1)	(60,2)	(42,1)	(8,2)	(58,1)	(55,1)	(59,3)	(25,1)	(15,1)	
L2C -58>	(-3,1)	(-2,1)	(17,1)	(59,3)	(37,1)	(1,7)	(23,2)	(6,1)	(36,1)	(0,1)	(58,1)	(1,0)	(1,0)	(1,0)	(1,0)	(1,0)	
L2C -57>	(45,2)	(59,1)	(2,1)	(23,1)	(54,1)	(1,6)	(7,1)	(-1,1)	(14,1)	(58,2)	(3,1)	(32,1)	(57,3)	(12,1)	(26,1)	(53,1)	
L2C -56>	(31,1)	(22,1)	(17,1)	(1,8)	(13,1)	(24,1)	(41,2)	(49,1)	(44,1)	(16,1)	(-2,2)	(23,1)	(-1,1)	(32,1)	(21,1)	(1,0)	
L2C -55>	(1,12)	(24,1)	(21,2)	(12,1)	(6,1)	(0,2)	(8,2)	(52,2)	(10,1)	(16,1)	(-1,1)	(37,1)	(-4,1)	(55,2)	(26,3)	(4,1)	
L2C -54>	(1,17)	(54,5)	(16,1)	(-2,1)	(45,1)	(29,1)	(24,1)	(11,1)	(14,1)	(44,1)	(55,2)	(13,1)	(0,3)	(46,1)	(4,1)	(17,1)	
L2C -53>	(1,14)	(20,1)	(50,1)	(53,4)	(5,2)	(9,1)	(14,1)	(-7,2)	(52,1)	(24,1)	(7,1)	(44,1)	(3,2)	(46,1)	(45,1)	(-1,1)	
L2C -52>	(2,2)	(59,1)	(1,10)	(22,2)	(47,2)	(40,2)	(8,1)	(4,1)	(0,5)	(30,2)	(43,1)	(45,1)	(26,1)	(-1,1)	(3,1)	(53,1)	
L2C -51>	(47,1)	(1,17)	(2,3)	(38,1)	(-8,1)	(18,1)	(34,2)	(43,1)	(49,1)	(31,1)	(-9,1)	(-12,1)	(51,3)	(52,1)	(-1,2)	(39,1)	
L2C -50>	(1,9)	(50,1)	(32,1)	(9,1)	(12,1)	(46,2)	(51,4)	(-3,2)	(-5,3)	(10,2)	(-7,1)	(2,2)	(22,1)	(-2,1)	(14,2)	(18,2)	
L2C -49>	(48,5)	(1,18)	(-3,1)	(44,4)	(3,1)	(10,1)	(36,1)	(49,6)	(41,1)	(6,1)	(35,1)	(14,1)	(11,3)	(50,3)	(28,1)	(26,1)	
L2C -48>	(48,13)	(49,5)	(0,2)	(3,1)	(9,2)	(5,3)	(8,2)	(41,1)	(1,10)	(43,2)	(-3,1)	(40,1)	(44,1)	(-2,1)	(31,2)	(26,2)	
L2C -47>	(1,14)	(40,3)	(46,3)	(8,3)	(-1,1)	(47,5)	(20,2)	(45,1)	(21,1)	(14,1)	(49,1)	(0,4)	(7,1)	(48,3)	(17,3)	(35,1)	
L2C -46>	(48,4)	(1,15)	(8,3)	(0,6)	(46,3)	(50,2)	(7,1)	(30,1)	(33,1)	(34,3)	(9,1)	(56,1)	(4,1)	(20,2)	(49,1)	(39,1)	
L2C -45>	(10,2)	(1,9)	(-3,4)	(45,13)	(41,1)	(-1,7)	(2,1)	(23,1)	(40,2)	(-2,2)	(5,1)	(8,2)	(4,2)	(27,2)	(21,1)	(44,1)	
L2C -44>	(1,36)	(6,2)	(-7,2)	(39,2)	(40,2)	(44,1)	(10,1)	(8,3)	(43,1)	(-12,2)	(-6,1)	(49,1)	(-5,1)	(23,2)	(4,4)	(37,2)	
L2C -43>	(43,6)	(-1,6)	(36,1)	(2,2)	(37,2)	(8,1)	(4,1)	(47,3)	(0,9)	(-5,2)	(44,2)	(45,2)	(9,3)	(23,3)	(42,3)	(1,18)	
L2C -42>	(22,3)	(2,2)	(42,2)	(43,2)	(1,17)	(5,1)	(34,3)	(20,2)	(-1,3)	(6,2)	(0,8)	(-9,1)	(33,1)	(53,2)	(3,2)	(38,1)	
L2C -41>	(32,1)	(1,19)	(4,3)	(14,3)	(38,1)	(51,2)	(19,1)	(-9,4)	(16,4)	(28,1)	(22,3)	(-17,2)	(-10,2)	(41,3)	(-20,2)	(3,1)	
L2C -40>	(1,19)	(0,7)	(6,3)	(2,7)	(37,1)	(14,1)	(16,3)	(15,3)	(35,5)	(39,3)	(28,1)	(40,13)	(32,4)	(5,2)	(24,2)	(46,1)	
L2C -39>	(39,7)	(43,1)	(1,38)	(0,8)	(2,4)	(42,2)	(-10,1)	(13,3)	(14,1)	(15,1)	(11,4)	(40,4)	(9,2)	(4,1)	(-16,2)	(58,1)	
L2C -38>	(35,1)	(39,5)	(26,1)	(38,12)	(1,29)	(10,4)	(-19,1)	(-16,1)	(45,1)	(37,5)	(16,4)	(-3,2)	(4,1)	(0,12)	(33,2)	(8,1)	
L2C -37>	(1,47)	(2,3)	(18,3)	(32,2)	(0,2)	(-1,5)	(15,1)	(37,8)	(38,3)	(-3,1)	(9,1)	(-13,2)	(13,1)	(17,2)	(3,1)	(5,3)	
L2C -36>	(40,3)	(1,34)	(0,2)	(44,2)	(31,3)	(21,2)	(5,2)	(7,2)	(19,3)	(2,4)	(36,10)	(8,5)	(32,3)	(23,1)	(17,2)	(54,1)	
L2C -35>	(-1,3)	(0,8)	(34,2)	(8,4)	(-9,4)	(35,14)	(24,1)	(39,2)	(38,2)	(1,28)	(30,3)	(2,4)	(43,3)	(3,3)	(6,1)	(32,5)	
L2C -34>	(35,3)	(8,5)	(37,1)	(34,6)	(17,5)	(7,2)	(0,3)	(1,32)	(2,5)	(32,4)	(31,3)	(-7,1)	(16,2)	(52,2)	(49,1)	(11,2)	
L2C -33>	(1,43)	(33,17)	(3,5)	(32,4)	(8,4)	(-21,1)	(14,3)	(31,4)	(36,3)	(-1,2)	(0,10)	(34,8)	(-5,3)	(17,2)	(30,2)	(2,2)	
L2C -32>	(1,25)	(29,1)	(4,2)	(32,31)	(33,5)	(0,22)	(14,3)	(31,4)	(16,1)	(-1,10)	(12,1)	(30,2)	(39,1)	(-5,3)	(6,4)	(10,3)	
L2C -31>	(0,20)	(9,5)	(1,44)	(-23,1)	(30,2)	(32,5)	(2,4)	(-2,2)	(31,17)	(27,2)	(24,3)	(33,2)	(29,3)	(13,3)	(14,2)	(28,4)	
L2C -30>	(7,3)	(31,11)	(1,36)	(0,2)	(27,2)	(12,4)	(16,4)	(20,2)	(30,12)	(-15,1)	(8,5)	(10,3)	(37,2)	(9,3)	(11,2)	(2,2)	
L2C -29>	(2,7)	(30,8)	(1,25)	(11,2)	(-2,4)	(22,3)	(5,3)	(27,4)	(32,2)	(18,5)	(0,9)	(6,4)	(-3,3)	(-4,3)	(26,1)	(-1,6)	
L2C -28>	(31,1)	(1,31)	(2,8)	(25,1)	(39,1)	(10,7)	(7,2)	(-1,7)	(0,9)	(-17,2)	(11,1)	(33,3)	(28,6)	(21,2)	(-2,5)	(40,1)	
L2C -27>	(1,42)	(2,11)	(0,11)	(8,4)	(10,12)	(28,9)	(-20,1)	(25,4)	(-11,2)	(-8,2)	(14,2)	(27,12)	(22,2)	(-1,2)	(24,3)	(34,3)	
L2C -26>	(27,10)	(0,10)	(1,40)	(2,5)	(3,3)	(31,2)	(10,3)	(-5,5)	(24,1)	(-23,3)	(-2,3)	(-18,2)	(26,13)	(-8,3)	(20,1)	(19,3)	
L2C -25>	(1,44)	(0,17)	(-8,4)	(18,2)	(8,2)	(-2,4)	(25,16)	(40,2)	(-4,1)	(4,2)	(9,4)	(6,4)	(54,3)	(-13,3)	(-10,2)	(32,2)	
L2C -24>	(3,3)	(24,23)	(-1,6)	(2,7)	(1,31)	(19,2)	(8,8)	(6,2)	(23,6)	(0,19)	(-35,1)	(20,4)	(33,4)	(41,4)	(11,3)	(7,1)	
L2C -23>	(3,6)	(1,38)	(24,8)	(18,5)	(-17,5)	(17,3)	(13,2)	(0,3)	(-7,1)	(42,1)	(21,1)	(-28,2)	(23,24)	(8,3)	(35,5)	(22,9)	
L2C -22>	(14,2)	(23,5)	(1,60)	(4,6)	(32,3)	(9,4)	(21,2)	(2,8)	(25,1)	(-1,3)	(-3,1)	(18,3)	(22,16)	(16,5)	(10,2)	(0,11)	
L2C -21>	(22,10)	(-1,11)	(0,1)	(-13,3)	(2,9)	(37,3)	(1,55)	(3,6)	(13,2)	(21,15)	(4,2)	(7,1)	(18,3)	(10,5)	(42,1)	(5,4)	
L2C -20>	(7,3)	(-2,8)	(50,1)	(2,9)	(1,52)	(21,6)	(0,14)	(5,3)	(12,3)	(20,33)	(16,3)	(31,3)	(17,2)	(-12,5)	(24,4)	(29,3)	
L2C -19>	(1,57)	(20,12)	(0,4)	(8,7)	(-14,3)	(-1,10)	(9,5)	(3,5)	(11,1)	(-2,2)	(21,4)	(2,8)	(18,4)	(19,3)	(54,2)	(14,5)	
L2C -18>	(18,20)	(0,21)	(45,1)	(1,64)	(9,4)	(3,7)	(19,27)	(15,4)	(8,5)	(-6,3)	(37,2)	(13,3)	(-2,5)	(21,3)	(5,8)	(-16,4)	
L2C -17>	(2,12)	(14,7)	(15,5)	(1,59)	(0,16)	(4,14)	(-5,1)	(18,14)	(-1,8)	(-19,2)	(16,9)	(-15,3)	(-20,3)	(-16,4)	(25,5)	(-2,5)	
L2C -16>	(9,1)	(8,42)	(4,9)	(17,24)	(40,1)	(1,59)	(18,5)	(2,15)	(14,3)	(15,5)	(-2,5)	(16,59)	(0,33)	(-7,3)	(32,5)	(34,1)	
L2C -15>	(1,55)	(4,7)	(-7,1)	(20,3)	(14,7)	(-2,4)	(3,6)	(25,5)	(-41,2)	(8,7)	(-1,12)	(15,38)	(-5,7)	(0,22)	(16,18)	(38,1)	
L2C -14>	(-4,9)	(1,74)	(-24,1)	(-5,8)	(3,4)	(37,6)	(15,13)	(21,3)	(8,3)	(11,5)	(-19,2)	(-1,8)	(0,21)	(-2,8)	(26,3)	(9,15)	
L2C -13>	(3,4)	(-2,6)	(-11,4)	(1,60)	(16,6)	(0,15)	(2,13)	(-1,11)	(8,39)	(-22,1)	(11,4)	(21,3)	(-5,9)	(18,3)	(-6,7)	(12,6)	
L2C -12>	(-2,9)	(1,73)	(4,18)	(29,1)	(-15,3)	(7,5)	(15,6)	(-6,6)	(10,4)	(2,18)	(12,15)	(14,6)	(9,4)	(-3,6)	(13,12)	(3,6)	
L2C -11>	(-2,7)	(4,9)	(20,3)	(-21,1)	(8,7)	(9,5)	(-8,4)	(1,66)	(-6,8)	(13,7)	(-9,3)	(11,27)	(2,23)	(16,5)	(38,2)	(-1,18)	
L2C -10>	(1,79)	(32,1)	(3,3)	(-12,6)	(2,20)	(10,17)	(14,6)	(-9,4)	(30,4)	(-5,6)	(-3,10)	(-1,12)	(0,20)	(-4,6)	(7,6)	(-8,4)	
L2C -9>	(-32,1)	(-11,3)	(-8,9)	(4,9)	(1,83)	(7,4)	(10,16)	(-1,16)	(2,20)	(9,27)	(-4,7)	(36,3)	(28,5)	(13,5)	(-2,9)	(0,11)	
L2C -8>	(1,98)	(2,27)	(12,5)	(7,8)	(37,1)	(9,21)	(4,12)	(8,27)	(-1,14)	(-4,10)	(-38,2)	(16,3)	(-2,17)	(19,5)	(33,2)	(0,34)	
L2C -7>	(-1,24)	(8,29)	(4,12)	(5,12)	(1,151)	(0,15)	(-5,8)	(23,6)	(7,9)	(12,7)	(2,22)	(-14,4)	(6,7)	(-19,6)	(-2,15)	(3,1)	
L2C -6>	(-1,22)	(3,12)	(-4,16)	(1,108)	(10,10)	(21,8)	(0,22)	(6,21)	(-2,16)	(-10,5)	(11,1)	(9,5)	(4,9)	(7,20)	(5,12)	(12,6)	
L2C -5>	(6,36)	(0,161)	(10,1)	(3,20)	(-4,13)	(-7,11)	(1,181)	(2,34)	(27,6)	(-15,4)	(-16,7)	(13,10)	(8,16)	(4,20)	(-31,4)	(-5,10)	
L2C -4>	(-1,32)	(6,1)	(1,159)	(-11,20)	(-2,12)	(28,4)	(-14,8)	(2,27)	(9,8)	(-24,7)	(5,23)	(15,2)	(8,10)	(3,23)	(-9,6)	(0,55)	
L2C -3>	(-2,30)	(-4,14)	(-3,20)	(4,29)	(-7,7)	(2,37)	(-1,37)	(5,13)	(1,156)	(-8,6)	(3,36)	(26,5)	(6,9)	(0,105)	(-54,1)	(-19,6)	
L2C -2>	(-1,51)	(1,143)	(-3,16)	(8,9)	(-2,43)	(14,8)	(3,49)	(-14,11)	(16,5)	(2,54)	(6,22)	(-17,1)	(0,55)	(-9,11)	(-10,12)	(5,12)	
L2C -1>	(-1,92)	(3,27)	(-48,1)	(2,153)	(6,13)	(10,15)	(-5,22)	(-2,44)	(-16,15)	(-13,4)	(8,16)	(14,11)	(-3,28)	(1,187)	(12,14)	(0,151)	
L2C 0>	(-2,1)	(18,1)	(44,2)	(-16,1)	(25,0)	(-27,0)	(16,1)	(-1,3)	(0,146)	(1,5)	(5,1)	(-14,0)	(-44,0)	(-4,1)	(31,0)	(-15,1)	
L2C 1>	(1,179)	(5,2)	(-1,4)	(9,2)	(10,3)	(2,12)	(-4,2)	(-9,1)	(6,2)	(-5,4)	(3,8)	(22,1)	(0,3)	(13,1)	(19,1)	(-31,1)	
L2C 2>	(1,238)	(-1,16)	(6,4)	(-5,4)	(23,1)	(-8,4)	(-3,12)	(-13,2)	(8,5)	(-22,3)	(-4,13)	(-17,1)	(16,2)	(-2,15)	(2,29)	(4,16)	
L2C 3>	(14,10)	(1,246)	(3,34)	(4,33)	(7,13)	(2,34)	(8,13)	(0,1)	(-3,29)	(18,9)	(9,6)	(-17,6)	(-5,14)	(-8,12)	(-2,66)	(-4,20)	
L2C 4>	(1,146)	(4,212)	(6,6)	(3,13)	(-10,16)	(-3,48)	(5,3)	(-4,28)	(-7,19)	(-1,22)	(-22,8)	(-20,5)	(-47,4)	(-23,11)	(0,23)	(7,5)	
L2C 5>	(1,121)	(-4,30)	(0,27)	(-9,10)	(-5,37)	(17,4)	(4,27)	(3,14)	(2,20)	(-1,19)	(-6,7)	(13,6)	(12,4)	(32,1)	(-8,9)	(-2,11)	
L2C 6>	(-16,13)	(1,128)	(2,17)	(3,11)	(7,4)	(-1,25)	(11,5)	(8,6)	(-40,1)	(-7,30)	(0,14)	(-5,25)	(37,2)	(-4,10)	(4,11)	(-15,5)	
L2C 7>	(1,109)	(8,7)	(-6,19)	(-8,8)	(-7,14)	(-11,5)	(7,4)	(12,1)	(-32,4)	(-9,4)	(16,4)	(0,17)	(-5,11)	(5,2)	(2,20)	(-3,8)	
L2C 8>	(2,25)	(1,131)	(-3,10)	(-6,15)	(-7,56)	(46,1)	(3,11)	(41,4)	(-29,4)	(20,3)	(-1,11)	(-8,37)	(-18,5)	(-9,8)	(8,25)	(0,17)	
L2C 9>	(1,85)	(4,4)	(-2,6)	(-6,19)	(-7,5)	(2,15)	(-9,22)	(-14,11)	(-3,3)	(-8,31)	(0,16)	(-12,6)	(-1,13)	(-5,1)	(3,10)	(14,4)	
L2C 10>	(-14,10)	(-3,9)	(1,75)	(-17,7)	(-12,6)	(2,8)	(-6,8)	(-5,8)	(-10,28)	(-9,9)	(-36,4)	(-62,1)	(-8,3)	(20,3)	(4,8)	(-13,5)	
L2C 11>	(-1,13)	(-12,8)	(-30,1)	(-10,13)	(0,11)	(-4,6)	(5,6)	(-18,4)	(10,3)	(-21,3)	(1,60)	(-23,4)	(-15,5)	(8,3)	(-3,3)	(-11,41)	
L2C 12>	(1,113)	(-16,6)	(4,14)	(0,10)	(-11,19)	(-2,14)	(-36,5)	(-32,1)	(-35,2)	(-1,11)	(-5,7)	(-30,2)	(8,2)	(3,12)	(18,3)	(-17,4)	
L2C 13>	(1,74)	(-12,17)	(-1,9)	(21,2)	(33,1)	(35,2)	(-17,4)	(-5,18)	(12,2)	(-18,6)	(10,3)	(-2,8)	(-19,5)	(2,9)	(-31,3)	(0,16)	
L2C 14>	(1,67)	(4,6)	(2,16)	(-3,9)	(-5,8)	(-14,41)	(12,2)	(-1,8)	(-27,3)	(-12,5)	(-13,7)	(-8,2)	(-10,2)	(3,1)	(-34,2)	(24,2)	
L2C 15>	(1,55)	(-16,7)	(-13,5)	(-14,14)	(-35,1)	(-11,6)	(-15,39)	(-47,3)	(-9,5)	(-2,6)	(4,6)	(-21,5)	(-8,6)	(-1,3)	(2,10)	(0,17)	
L2C 16>	(1,52)	(4,7)	(-6,3)	(-18,3)	(-4,11)	(-19,5)	(2,14)	(-36,2)	(-1,12)	(0,40)	(-16,40)	(-27,4)	(-11,1)	(-15,13)	(-12,3)	(-17,8)	
L2C 17>	(4,6)	(1,74)	(-1,11)	(-20,3)	(2,6)	(-8,1)	(-4,6)	(-17,17)	(7,2)	(-16,8)	(-33,4)	(14,1)	(-15,8)	(0,20)	(-35,2)	(-2,7)	
L2C 18>	(0,17)	(1,66)	(-9,4)	(-1,10)	(-2,6)	(-23,3)	(2,6)	(7,1)	(-19,4)	(-6,4)	(-34,1)	(-38,2)	(3,7)	(-12,4)	(-17,13)	(-18,26)	
L2C 19>	(-1,6)	(-3,4)	(1,68)	(-10,4)	(2,6)	(0,12)	(35,3)	(-19,12)	(-5,2)	(-18,20)	(-20,2)	(-32,5)	(-8,4)	(-14,1)	(-41,2)	(-21,4)	
L2C 20>	(1,56)	(2,15)	(-17,6)	(-3,3)	(-24,4)	(-20,14)	(12,3)	(-2,8)	(-21,5)	(4,4)	(-5,5)	(-1,5)	(0,9)	(-8,2)	(-7,1)	(-11,7)	
L2C 21>	(-23,3)	(-21,7)	(0,18)	(1,38)	(2,1)	(3,4)	(-17,4)	(4,5)	(-2,3)	(13,3)	(-1,7)	(-16,3)	(6,2)	(-63,1)	(-15,3)	(-36,3)	
L2C 22>	(1,39)	(0,7)	(-20,3)	(-22,7)	(-25,3)	(-19,3)	(-27,3)	(-21,7)	(2,5)	(-2,1)	(-11,1)	(29,1)	(-30,3)	(-13,3)	(16,1)	(-3,2)	
L2C 23>	(1,17)	(-10,3)	(-21,5)	(-24,6)	(-22,13)	(-6,8)	(-1,4)	(-23,13)	(0,10)	(25,1)	(4,3)	(-31,4)	(-5,3)	(-20,2)	(5,3)	(3,3)	
L2C 24>	(0,12)	(-1,4)	(1,37)	(-11,4)	(5,1)	(-7,4)	(16,3)	(-23,5)	(25,1)	(14,2)	(-22,4)	(-32,3)	(-4,5)	(-8,3)	(-17,1)	(-24,22)	
L2C 25>	(12,3)	(1,39)	(-24,8)	(-38,2)	(-6,1)	(-28,2)	(-13,4)	(16,1)	(-25,23)	(4,4)	(-1,5)	(-30,5)	(2,6)	(-17,3)	(-26,1)	(0,13)	
L2C 26>	(1,37)	(0,3)	(-21,5)	(-45,1)	(-26,7)	(-34,1)	(-31,1)	(4,3)	(-1,6)	(-28,2)	(-2,2)	(-25,7)	(-20,2)	(-32,1)	(-9,1)	(-43,1)	
L2C 27>	(-1,7)	(0,7)	(1,30)	(3,3)	(4,5)	(-27,16)	(-32,4)	(8,8)	(-23,5)	(-12,2)	(-8,2)	(-7,3)	(-40,1)	(13,1)	(-26,7)	(2,8)	
L2C 28>	(1,27)	(0,4)	(-3,4)	(-27,4)	(-32,2)	(-1,4)	(-40,2)	(-41,1)	(4,1)	(2,7)	(-17,4)	(-23,2)	(-33,5)	(-28,15)	(24,2)	(-16,3)	
L2C 29>	(-26,3)	(4,3)	(-34,5)	(-31,3)	(1,11)	(-27,4)	(-18,1)	(17,3)	(-28,7)	(5,2)	(-29,12)	(-33,5)	(-8,4)	(-32,5)	(7,1)	(-4,2)	
L2C 30>	(0,8)	(-9,3)	(18,2)	(-3,9)	(-30,1)	(-29,4)	(-10,2)	(1,35)	(-4,1)	(5,2)	(-2,5)	(-47,1)	(3,2)	(-31,4)	(8,1)	(-28,1)	
L2C 31>	(-30,6)	(-32,7)	(1,34)	(-24,1)	(-13,2)	(0,13)	(-1,5)	(-38,1)	(2,4)	(12,1)	(-31,19)	(4,2)	(-34,4)	(-28,5)	(-26,2)	(-14,4)	
L2C 32>	(-31,5)	(8,9)	(1,28)	(-32,22)	(0,16)	(-33,1)	(-28,3)	(-15,3)	(-34,2)	(-21,1)	(2,4)	(-19,3)	(-1,4)	(14,1)	(-24,2)	(-37,4)	
L2C 33>	(-2,4)	(-7,5)	(1,31)	(-37,2)	(-47,1)	(-32,7)	(-17,3)	(-24,1)	(-21,2)	(-33,13)	(-1,4)	(4,3)	(-13,1)	(-26,2)	(-14,1)	(-34,2)	
L2C 34>	(1,23)	(-3,5)	(0,6)	(-24,2)	(-7,1)	(-17,2)	(-1,3)	(-2,2)	(4,4)	(-30,1)	(-44,1)	(-34,6)	(-21,4)	(2,1)	(-6,1)	(-5,3)	
L2C 35>	(1,39)	(-40,3)	(-30,2)	(-33,6)	(-32,2)	(-19,6)	(-29,2)	(-35,20)	(-36,3)	(-31,4)	(-23,1)	(-41,1)	(2,4)	(-10,1)	(-5,3)	(-49,1)	
L2C 36>	(-36,1)	(1,25)	(-37,5)	(-41,1)	(-38,2)	(-35,9)	(-39,2)	(-21,2)	(-53,1)	(-2,2)	(2,4)	(-3,1)	(4,3)	(-28,1)	(-46,2)	(-22,1)	
L2C 37>	(-7,2)	(1,21)	(-25,2)	(-37,8)	(-40,3)	(2,1)	(14,1)	(-10,3)	(-15,5)	(-38,4)	(0,9)	(-19,4)	(-24,1)	(-29,2)	(-49,1)	(-23,3)	
L2C 38>	(-13,4)	(1,23)	(-6,3)	(-38,7)	(-24,2)	(-30,3)	(-20,3)	(-17,4)	(0,14)	(-33,2)	(12,1)	(-1,5)	(-32,3)	(-14,1)	(4,2)	(-22,1)	
L2C 39>	(1,28)	(-38,2)	(-10,3)	(-14,2)	(-49,2)	(-7,1)	(-37,3)	(-41,1)	(2,3)	(-40,5)	(-2,3)	(-47,2)	(4,1)	(-57,1)	(0,6)	(-12,1)	
L2C 40>	(-13,3)	(-45,3)	(-19,1)	(-40,12)	(-11,2)	(-39,13)	(1,23)	(-15,3)	(-47,1)	(0,8)	(-34,3)	(-38,1)	(-50,1)	(-14,2)	(3,4)	(-26,2)	
L2C 41>	(1,15)	(0,2)	(-2,2)	(-47,2)	(-26,2)	(-46,2)	(-38,2)	(-1,3)	(-41,4)	(-40,2)	(-63,1)	(-37,2)	(-22,1)	(17,1)	(-55,1)	(5,1)	
L2C 42>	(1,20)	(-42,5)	(-21,1)	(-39,2)	(-44,1)	(-9,2)	(-56,1)	(-51,1)	(0,5)	(-11,3)	(2,2)	(-43,2)	(-1,2)	(-40,1)	(-55,1)	(-54,1)	
L2C 43>	(1,13)	(-13,3)	(-41,2)	(-37,1)	(-43,5)	(-3,1)	(-8,1)	(-19,2)	(13,1)	(0,7)	(2,3)	(-12,1)	(-5,1)	(-4,1)	(-7,2)	(-16,1)	
L2C 44>	(-25,1)	(1,13)	(0,10)	(-3,1)	(-49,2)	(-41,1)	(-1,2)	(-2,3)	(-26,2)	(-43,2)	(-11,1)	(-32,1)	(-36,1)	(3,3)	(15,1)	(-48,1)	
L2C 45>	(-45,11)	(1,23)	(-5,2)	(-22,1)	(-30,1)	(-44,4)	(-21,1)	(-9,5)	(-42,3)	(3,1)	(-15,2)	(-2,2)	(8,1)	(0,9)	(-39,2)	(-7,1)	
L2C 46>	(-7,3)	(-13,1)	(-21,1)	(1,10)	(-45,3)	(-52,2)	(0,3)	(-42,1)	(-48,2)	(-34,2)	(-14,2)	(-32,1)	(-11,2)	(-46,7)	(-49,1)	(-19,1)	
L2C 47>	(1,23)	(-47,2)	(-3,2)	(-44,2)	(-13,3)	(0,6)	(-11,1)	(-32,2)	(-49,1)	(-24,1)	(-14,1)	(3,4)	(-26,1)	(-46,3)	(5,2)	(-60,1)	
L2C 48>	(-16,2)	(-48,10)	(1,16)	(-27,1)	(-15,1)	(-29,2)	(-24,1)	(-17,1)	(-20,1)	(-55,1)	(-3,1)	(-32,3)	(-51,1)	(-8,1)	(-53,2)	(0,7)	
L2C 49>	(1,22)	(-2,1)	(-46,1)	(-34,1)	(-17,1)	(-9,2)	(-19,2)	(-58,2)	(0,4)	(-50,1)	(-49,2)	(-5,2)	(-52,1)	(-35,1)	(-24,1)	(-47,3)	
L2C 50>	(1,11)	(-1,2)	(-35,1)	(-6,1)	(-2,1)	(-19,1)	(-29,1)	(-7,1)	(0,4)	(-45,1)	(-24,2)	(-55,1)	(-49,1)	(-56,1)	(-40,1)	(-31,1)	
L2C 51>	(-54,1)	(1,9)	(-25,2)	(-21,1)	(-12,2)	(2,1)	(-5,1)	(-39,1)	(-1,2)	(-50,5)	(-20,1)	(-37,1)	(-13,1)	(-33,1)	(-24,1)	(-8,1)	
L2C 52>	(-22,2)	(1,9)	(-52,4)	(-30,1)	(-50,1)	(-38,1)	(3,1)	(-55,1)	(-54,1)	(-18,2)	(-24,1)	(-37,1)	(-5,1)	(-51,2)	(-57,1)	(-39,1)	
L2C 53>	(-26,1)	(-14,1)	(-52,1)	(-16,2)	(4,3)	(-42,1)	(-34,2)	(1,2)	(-58,1)	(-47,1)	(0,1)	(-2,4)	(-35,1)	(-32,1)	(-50,1)	(-54,1)	
L2C 54>	(-2,3)	(1,2)	(-51,2)	(-54,2)	(-17,1)	(-44,1)	(-28,1)	(-8,1)	(-24,1)	(-42,1)	(-3,1)	(-4,1)	(-25,1)	(0,7)	(-11,1)	(-48,1)	
L2C 55>	(1,3)	(-11,1)	(-55,4)	(4,1)	(-54,6)	(-47,1)	(-2,1)	(-10,1)	(-37,1)	(-28,2)	(-36,2)	(-42,1)	(0,2)	(-18,1)	(-50,1)	(-5,1)	
L2C 56>	(-36,1)	(-27,2)	(-57,2)	(2,2)	(-2,2)	(-31,3)	(-5,1)	(0,1)	(-43,1)	(-26,1)	(-58,1)	(-51,1)	(-33,1)	(-46,1)	(-54,1)	(-47,1)	
L2C 57>	(1,2)	(0,4)	(-56,1)	(-52,1)	(-1,1)	(-57,1)	(-16,1)	(-45,1)	(-49,1)	(2,1)	(-29,1)	(-18,1)	(1,0)	(1,0)	(1,0)	(1,0)	
L2C 58>	(-2,1)	(-57,2)	(-56,2)	(-7,1)	(1,2)	(-19,1)	(-59,1)	(-58,1)	(-12,1)	(1,0)	(1,0)	(1,0)	(1,0)	(1,0)	(1,0)	(1,0)	
L2C 59>	(-58,4)	(-59,1)	(1,2)	(-26,1)	(0,2)	(-52,1)	(-15,1)	(-31,2)	(-30,1)	(-55,1)	(-38,1)	(-51,1)	(3,1)	(-47,1)	(-42,1)	(1,0)	
L2C 60>	(-54,1)	(-30,1)	(-37,1)	(-19,1)	(-49,1)	(1,0)	(1,0)	(1,0)	(1,0)	(1,0)	(1,0)	(1,0)	(1,0)	(1,0)	(1,0)	(1,0)	
L2C 61>	(-35,1)	(-46,1)	(1,1)	(-58,1)	(-25,1)	(-31,1)	(-62,1)	(-60,1)	(1,0)	(1,0)	(1,0)	(1,0)	(1,0)	(1,0)	(1,0)	(1,0)	
L2C 62>	(1,0)	(1,0)	(1,0)	(1,0)	(1,0)	(1,0)	(1,0)	(1,0)	(1,0)	(1,0)	(1,0)	(1,0)	(1,0)	(1,0)	(1,0)	(1,0)	
L2C 63>	(-50,1)	(1,0)	(1,0)	(1,0)	(1,0)	(1,0)	(1,0)	(1,0)	(1,0)	(1,0)	(1,0)	(1,0)	(1,0)	(1,0)	(1,0)	(1,0)	

DRAM Statistics
 CHANNEL 0
 RQ ROW_BUFFER_HIT:      44847  ROW_BUFFER_MISS:      47858
 DBUS_CONGESTED:      65069
 WQ ROW_BUFFER_HIT:        468  ROW_BUFFER_MISS:       6919  FULL:          0

 AVG_CONGESTED_CYCLE: 6
