
*** ChampSim Multicore Out-of-Order Simulator ***

Warmup Instructions: 1000000
Simulation Instructions: 10000000
Number of CPUs: 1
LLC sets: 2048
LLC ways: 16
Off-chip DRAM Size: 4096 MB Channels: 1 Width: 64-bit Data Rate: 3200 MT/s

CPU 0 runs /home/aniket/Desktop/sem/cs622/cs622-project/champsim/dpc3_traces/619.lbm_s-4268B.champsimtrace.xz
CPU 0 L2C next line prefetcher
LLC Next Line Prefetcher

Warmup complete CPU 0 instructions: 1000002 cycles: 398900 (Simulation time: 0 hr 0 min 2 sec) 

Heartbeat CPU 0 instructions: 10000002 cycles: 18240582 heartbeat IPC: 0.548228 cumulative IPC: 0.504437 (Simulation time: 0 hr 0 min 32 sec) 
Finished CPU 0 instructions: 10000000 cycles: 20019275 cumulative IPC: 0.499519 (Simulation time: 0 hr 0 min 36 sec) 

CPU 0 Branch Prediction Accuracy: 97.172% MPKI: 0.5028 Average ROB Occupancy at Mispredict: 323.209

ChampSim completed all CPUs

Region of Interest Statistics

CPU 0 cumulative IPC: 0.499519 instructions: 10000000 cycles: 20019275
L1D TOTAL     ACCESS:    2515274  HIT:    1711843  MISS:     803431
L1D LOAD      ACCESS:     777219  HIT:     714306  MISS:      62913
L1D RFO       ACCESS:    1654803  HIT:     997521  MISS:     657282
L1D PREFETCH  ACCESS:      83252  HIT:         16  MISS:      83236
L1D WRITEBACK ACCESS:          0  HIT:          0  MISS:          0
L1D PREFETCH  REQUESTED:     110917  ISSUED:     110917  USEFUL:      65335  USELESS:      30108
L1D AVERAGE MISS LATENCY: 188142 cycles
L1I TOTAL     ACCESS:    2183088  HIT:    2183088  MISS:          0
L1I LOAD      ACCESS:    2183088  HIT:    2183088  MISS:          0
L1I RFO       ACCESS:          0  HIT:          0  MISS:          0
L1I PREFETCH  ACCESS:          0  HIT:          0  MISS:          0
L1I WRITEBACK ACCESS:          0  HIT:          0  MISS:          0
L1I PREFETCH  REQUESTED:          0  ISSUED:          0  USEFUL:          0  USELESS:          0
L1I AVERAGE MISS LATENCY: -nan cycles
L2C TOTAL     ACCESS:    1478430  HIT:    1007991  MISS:     470439
L2C LOAD      ACCESS:      48101  HIT:       8483  MISS:      39618
L2C RFO       ACCESS:     657280  HIT:     304315  MISS:     352965
L2C PREFETCH  ACCESS:     115743  HIT:      37918  MISS:      77825
L2C WRITEBACK ACCESS:     657306  HIT:     657275  MISS:         31
L2C PREFETCH  REQUESTED:      49196  ISSUED:      48551  USEFUL:       8925  USELESS:      79180
L2C AVERAGE MISS LATENCY: 585.131 cycles
LLC TOTAL     ACCESS:     826934  HIT:     357389  MISS:     469545
LLC LOAD      ACCESS:      29143  HIT:          7  MISS:      29136
LLC RFO       ACCESS:     352965  HIT:        876  MISS:     352089
LLC PREFETCH  ACCESS:      92436  HIT:       4142  MISS:      88294
LLC WRITEBACK ACCESS:     352390  HIT:     352364  MISS:         26
LLC PREFETCH  REQUESTED:      29778  ISSUED:      29399  USEFUL:         24  USELESS:      92712
LLC AVERAGE MISS LATENCY: 560.756 cycles
Major fault: 0 Minor fault: 7186
=== CPU 0 L1D Prefetcher Statistics ===
[MLOP] History of tracked zone:
IIIIIIIIIIIIIIIIIIIIIIIIIIIIIIIIIIIIIIIIIIIIIIIIIIIIIIIIIIIIIIII
AII11111IIIIIIIIIIIIIIIIIIIIIIIIIIIIIIIIIIIIIIIIIIIIIIIIIIIIIIII
AIIA1111111IIIIIIIIIIIIIIIIIIIIIIIIIIIIIIIIIIIIIIIIIIIIIIIIIIIII
AAIA1111111IIIIIIIIIIIIIIIIIIIIIIIIIIIIIIIIIIIIIIIIIIIIIIIIIIIII
AAAA1111111IIIIIIIIIIIIIIIIIIIIIIIIIIIIIIIIIIIIIIIIIIIIIIIIIIIII
AAAA1A1111111IIIIIIIIIIIIIIIIIIIIIIIIIIIIIIIIIIIIIIIIIIIIIIIIIII
AAAAAA1111111IIIIIIIIIIIIIIIIIIIIIIIIIIIIIIIIIIIIIIIIIIIIIIIIIII
AAAAAA11A1111111IIIIIIIIIIIIIIIIIIIIIIIIIIIIIIIIIIIIIIIIIIIIIIII
AAAAAAA1A1111111IIIIIIIIIIIIIIIIIIIIIIIIIIIIIIIIIIIIIIIIIIIIIIII
AAAAAAAAA1111111IIIIIIIIIIIIIIIIIIIIIIIIIIIIIIIIIIIIIIIIIIIIIIII
AAAAAAAAA1A1111111IIIIIIIIIIIIIIIIIIIIIIIIIIIIIIIIIIIIIIIIIIIIII
AAAAAAAAAAA1111111IIIIIIIIIIIIIIIIIIIIIIIIIIIIIIIIIIIIIIIIIIIIII
AAAAAAAAAAA11A1111111IIIIIIIIIIIIIIIIIIIIIIIIIIIIIIIIIIIIIIIIIII
AAAAAAAAAAAA1A1111111IIIIIIIIIIIIIIIIIIIIIIIIIIIIIIIIIIIIIIIIIII
AAAAAAAAAAAAAA1111111IIIIIIIIIIIIIIIIIIIIIIIIIIIIIIIIIIIIIIIIIII
AAAAAAAAAAAAAA1A1111111IIIIIIIIIIIIIIIIIIIIIIIIIIIIIIIIIIIIIIIII
AAAAAAAAAAAAAAAA1111111IIIIIIIIIIIIIIIIIIIIIIIIIIIIIIIIIIIIIIIII
AAAAAAAAAAAAAAAA11A1111111IIIIIIIIIIIIIIIIIIIIIIIIIIIIIIIIIIIIII
AAAAAAAAAAAAAAAAA1A1111111IIIIIIIIIIIIIIIIIIIIIIIIIIIIIIIIIIIIII
AAAAAAAAAAAAAAAAAAA1111111IIIIIIIIIIIIIIIIIIIIIIIIIIIIIIIIIIIIII
AAAAAAAAAAAAAAAAAAA1A1111111IIIIIIIIIIIIIIIIIIIIIIIIIIIIIIIIIIII
AAAAAAAAAAAAAAAAAAAAA1111111IIIIIIIIIIIIIIIIIIIIIIIIIIIIIIIIIIII
AAAAAAAAAAAAAAAAAAAAA11A1111111IIIIIIIIIIIIIIIIIIIIIIIIIIIIIIIII
AAAAAAAAAAAAAAAAAAAAAA1A1111111IIIIIIIIIIIIIIIIIIIIIIIIIIIIIIIII
AAAAAAAAAAAAAAAAAAAAAAAA1111111IIIIIIIIIIIIIIIIIIIIIIIIIIIIIIIII
AAAAAAAAAAAAAAAAAAAAAAAA1A1111111IIIIIIIIIIIIIIIIIIIIIIIIIIIIIII
AAAAAAAAAAAAAAAAAAAAAAAAAA1111111IIIIIIIIIIIIIIIIIIIIIIIIIIIIIII
AAAAAAAAAAAAAAAAAAAAAAAAAA11A1111111IIIIIIIIIIIIIIIIIIIIIIIIIIII
AAAAAAAAAAAAAAAAAAAAAAAAAAA1A1111111IIIIIIIIIIIIIIIIIIIIIIIIIIII
AAAAAAAAAAAAAAAAAAAAAAAAAAAAA1111111IIIIIIIIIIIIIIIIIIIIIIIIIIII
AAAAAAAAAAAAAAAAAAAAAAAAAAAAA1A1111111IIIIIIIIIIIIIIIIIIIIIIIIII
AAAAAAAAAAAAAAAAAAAAAAAAAAAAAAA1111111IIIIIIIIIIIIIIIIIIIIIIIIII
AAAAAAAAAAAAAAAAAAAAAAAAAAAAAAA11A1111111IIIIIIIIIIIIIIIIIIIIIII
AAAAAAAAAAAAAAAAAAAAAAAAAAAAAAAA1A1111111IIIIIIIIIIIIIIIIIIIIIII
AAAAAAAAAAAAAAAAAAAAAAAAAAAAAAAAAA1111111IIIIIIIIIIIIIIIIIIIIIII
AAAAAAAAAAAAAAAAAAAAAAAAAAAAAAAAAA1A1111111IIIIIIIIIIIIIIIIIIIII
AAAAAAAAAAAAAAAAAAAAAAAAAAAAAAAAAAAA1111111IIIIIIIIIIIIIIIIIIIII
AAAAAAAAAAAAAAAAAAAAAAAAAAAAAAAAAAAA11A1111111IIIIIIIIIIIIIIIIII
AAAAAAAAAAAAAAAAAAAAAAAAAAAAAAAAAAAAA1A1111111IIIIIIIIIIIIIIIIII
AAAAAAAAAAAAAAAAAAAAAAAAAAAAAAAAAAAAAAA1111111IIIIIIIIIIIIIIIIII
AAAAAAAAAAAAAAAAAAAAAAAAAAAAAAAAAAAAAAA1A1111111IIIIIIIIIIIIIIII
AAAAAAAAAAAAAAAAAAAAAAAAAAAAAAAAAAAAAAAAA1111111IIIIIIIIIIIIIIII
AAAAAAAAAAAAAAAAAAAAAAAAAAAAAAAAAAAAAAAAA11A1111111IIIIIIIIIIIII
AAAAAAAAAAAAAAAAAAAAAAAAAAAAAAAAAAAAAAAAAA1A1111111IIIIIIIIIIIII
AAAAAAAAAAAAAAAAAAAAAAAAAAAAAAAAAAAAAAAAAAAA1111111IIIIIIIIIIIII
AAAAAAAAAAAAAAAAAAAAAAAAAAAAAAAAAAAAAAAAAAAA1A1111111IIIIIIIIIII
AAAAAAAAAAAAAAAAAAAAAAAAAAAAAAAAAAAAAAAAAAAAAA1111111IIIIIIIIIII
AAAAAAAAAAAAAAAAAAAAAAAAAAAAAAAAAAAAAAAAAAAAAA11A1111111IIIIIIII
AAAAAAAAAAAAAAAAAAAAAAAAAAAAAAAAAAAAAAAAAAAAAAA1A1111111IIIIIIII
AAAAAAAAAAAAAAAAAAAAAAAAAAAAAAAAAAAAAAAAAAAAAAAAA1111111IIIIIIII
AAAAAAAAAAAAAAAAAAAAAAAAAAAAAAAAAAAAAAAAAAAAAAAAA1A1111111IIIIII
AAAAAAAAAAAAAAAAAAAAAAAAAAAAAAAAAAAAAAAAAAAAAAAAAAA1111111IIIIII
AAAAAAAAAAAAAAAAAAAAAAAAAAAAAAAAAAAAAAAAAAAAAAAAAAA11A1111111III
AAAAAAAAAAAAAAAAAAAAAAAAAAAAAAAAAAAAAAAAAAAAAAAAAAAA1A1111111III
AAAAAAAAAAAAAAAAAAAAAAAAAAAAAAAAAAAAAAAAAAAAAAAAAAAAAA1111111III
AAAAAAAAAAAAAAAAAAAAAAAAAAAAAAAAAAAAAAAAAAAAAAAAAAAAAA1A1111111I
AAAAAAAAAAAAAAAAAAAAAAAAAAAAAAAAAAAAAAAAAAAAAAAAAAAAAAAA1111111I
AAAAAAAAAAAAAAAAAAAAAAAAAAAAAAAAAAAAAAAAAAAAAAAAAAAAAAAA11A11111
AAAAAAAAAAAAAAAAAAAAAAAAAAAAAAAAAAAAAAAAAAAAAAAAAAAAAAAAA1A11111
AAAAAAAAAAAAAAAAAAAAAAAAAAAAAAAAAAAAAAAAAAAAAAAAAAAAAAAAAAA11111
AAAAAAAAAAAAAAAAAAAAAAAAAAAAAAAAAAAAAAAAAAAAAAAAAAAAAAAAAAA1A111
AAAAAAAAAAAAAAAAAAAAAAAAAAAAAAAAAAAAAAAAAAAAAAAAAAAAAAAAAAAAA111
AAAAAAAAAAAAAAAAAAAAAAAAAAAAAAAAAAAAAAAAAAAAAAAAAAAAAAAAAAAAA11A
AAAAAAAAAAAAAAAAAAAAAAAAAAAAAAAAAAAAAAAAAAAAAAAAAAAAAAAAAAAAAA1A
AAAAAAAAAAAAAAAAAAAAAAAAAAAAAAAAAAAAAAAAAAAAAAAAAAAAAAAAAAAAAAAA
IAAAAAAAAAAAAAAAAAAAAAAAAAAAAAAAAAAAAAAAAAAAAAAAAAAAAAAAAAAAAAAA
IAAAAAAAAAIAAAAAAAAAAAAAAAAAAAAAAAAAAAAAAAAAAAAAAAAAAAAAAAAAAAAA
IIAAAAAAAAIAAAAAAAAAAAAAAAAAAAAAAAAAAAAAAAAAAAAAAAAAAAAAAAAAAAAA
IIAAAAAAAAIAAAAIAAAAAAAAAAAAAAAAAAAAAAAAAAAAAAAAAAAAAAAAAAAAAAAA
IIAAIAAAAAIAAAAIAAAAAAAAAAAAAAAAAAAAAAAAAAAAAAAAAAAAAAAAAAAAAAAA
IIAAIAIAAAIAAAAIAAAAAAAAAAAAAAAAAAAAAAAAAAAAAAAAAAAAAAAAAAAAAAAA
IIAIIAIAAAIAAAAIAAAAAAAAAAAAAAAAAAAAAAAAAAAAAAAAAAAAAAAAAAAAAAAA
IIAIIAIAAAIAAAAIAAAAIAAAAAAAAAAAAAAAAAAAAAAAAAAAAAAAAAAAAAAAAAAA
IIAIIAIAAIIAAAAIAAAAIAAAAAAAAAAAAAAAAAAAAAAAAAAAAAAAAAAAAAAAAAAA
IIAIIIIAAIIAAAAIAAAAIAAAAAAAAAAAAAAAAAAAAAAAAAAAAAAAAAAAAAAAAAAA
IIAIIIIAAIIIAAAIAAAAIAAAAAAAAAAAAAAAAAAAAAAAAAAAAAAAAAAAAAAAAAAA
IIAIIIIAAIIIAAAIAAAAIAAAAIAAAAAAAAAAAAAAAAAAAAAAAAAAAAAAAAAAAAAA
IIAIIIIAIIIIAAAIAAAAIAAAAIAAAAAAAAAAAAAAAAAAAAAAAAAAAAAAAAAAAAAA
IIAIIIIAIIIIAAIIAAAAIAAAAIAAAAAAAAAAAAAAAAAAAAAAAAAAAAAAAAAAAAAA
IIIIIIIAIIIIAAIIAAAAIAAAAIAAAAAAAAAAAAAAAAAAAAAAAAAAAAAAAAAAAAAA
IIIIIIIIIIIIAAIIAAAAIAAAAIAAAAAAAAAAAAAAAAAAAAAAAAAAAAAAAAAAAAAA
IIIIIIIIIIIIAAIIIAAAIAAAAIAAAAAAAAAAAAAAAAAAAAAAAAAAAAAAAAAAAAAA
IIIIIIIIIIIIAAIIIAAAIAAAAIAAAAIAAAAAAAAAAAAAAAAAAAAAAAAAAAAAAAAA
IIIIIIIIIIIIAIIIIAAAIAAAAIAAAAIAAAAAAAAAAAAAAAAAAAAAAAAAAAAAAAAA
IIIIIIIIIIIIAIIIIAAAIAAAAIAAAAIAAAAAAAAAAAAIAAAAAAAAAAAAAAAAAAAA
IIIIIIIIIIIIAIIIIAAIIAAAAIAAAAIAAAAAAAAAAAAIAAAAAAAAAAAAAAAAAAAA
IIIIIIIIIIIIIIIIIAAIIAAAAIAAAAIAAAAAAAAAAAAIAAAAAAAAAAAAAAAAAAAA
IIIIIIIIIIIIIIIIIAAIIAAAAIAAAAIAAAAAAAAAAAAIAIAAAAAAAAAAAAAAAAAA
IIIIIIIIIIIIIIIIIAAIIIAAAIAAAAIAAAAAAAAAAAAIAIAAAAAAAAAAAAAAAAAA
IIIIIIIIIIIIIIIIIAAIIIAAAIAAAAIAAAAIAAAAAAAIAIAAAAAAAAAAAAAAAAAA
IIIIIIIIIIIIIIIIIAIIIIAAAIAAAAIAAAAIAAAAAAAIAIAAAAAAAAAAAAAAAAAA
IIIIIIIIIIIIIIIIIAIIIIAAIIAAAAIAAAAIAAAAAAAIAIAAAAAAAAAAAAAAAAAA
IIIIIIIIIIIIIIIIIAIIIIAAIIAAAAIAAAAIAAAAAAAIAIAAIAAAAAAAAAAAAAAA
IIIIIIIIIIIIIIIIIAIIIIAAIIAAAAIAAAAIAAIAAAAIAIAAIAAAAAAAAAAAAAAA
IIIIIIIIIIIIIIIIIAIIIIAAIIIAAAIAAAAIAAIAAAAIAIAAIAAAAAAAAAAAAAAA
IIIIIIIIIIIIIIIIIAIIIIAAIIIAAAIAAAAIAAIAAAAIAIAAIAIAAAAAAAAAAAAA
IIIIIIIIIIIIIIIIIIIIIIAAIIIAAAIAAAAIAAIAAAAIAIAAIAIAAAAAAAAAAAAA
IIIIIIIIIIIIIIIIIIIIIIAAIIIAAAIAAAAIAAIAAIAIAIAAIAIAAAAAAAAAAAAA
IIIIIIIIIIIIIIIIIIIIIIAAIIIAAAIAAAAIAAIAIIAIAIAAIAIAAAAAAAAAAAAA
IIIIIIIIIIIIIIIIIIIIIIAIIIIAAAIAAAAIAAIAIIAIAIAAIAIAAAAAAAAAAAAA
IIIIIIIIIIIIIIIIIIIIIIAIIIIAAIIAAAAIAAIAIIAIAIAAIAIAAAAAAAAAAAAA
IIIIIIIIIIIIIIIIIIIIIIAIIIIAAIIAAAAIAAIAIIAIIIAAIAIAAAAAAAAAAAAA
IIIIIIIIIIIIIIIIIIIIIIIIIIIAAIIAAAAIAAIAIIAIIIAAIAIAAAAAAAAAAAAA
IIIIIIIIIIIIIIIIIIIIIIIIIIIAAIIIAAAIAAIAIIAIIIAAIAIAAAAAAAAAAAAA
IIIIIIIIIIIIIIIIIIIIIIIIIIIAAIIIAAAIAAIAIIAIIIIAIAIAAAAAAAAAAAAA
IIIIIIIIIIIIIIIIIIIIIIIIIIIAAIIIAAAIAAIAIIIIIIIAIAIAAAAAAAAAAAAA
IIIIIIIIIIIIIIIIIIIIIIIIIIIAIIIIAAAIAAIAIIIIIIIAIAIAAAAAAAAAAAAA
IIIIIIIIIIIIIIIIIIIIIIIIIIIAIIIIAAIIAAIAIIIIIIIAIAIAAAAAAAAAAAAA
IIIIIIIIIIIIIIIIIIIIIIIIIIIAIIIIAAIIAAIAIIIIIIIAIIIAAAAAAAAAAAAA
IIIIIIIIIIIIIIIIIIIIIIIIIIIIIIIIAAIIAAIAIIIIIIIAIIIAAAAAAAAAAAAA
IIIIIIIIIIIIIIIIIIIIIIIIIIIIIIIIAAIIIAIAIIIIIIIAIIIAAAAAAAAAAAAA
IIIIIIIIIIIIIIIIIIIIIIIIIIIIIIIIAAIIIAIAIIIIIIIIIIIAAAAAAAAAAAAA
IIIIIIIIIIIIIIIIIIIIIIIIIIIIIIIIAIIIIAIAIIIIIIIIIIIAAAAAAAAAAAAA
IIIIIIIIIIIIIIIIIIIIIIIIIIIIIIIIAIIIIAIIIIIIIIIIIIIAAAAAAAAAAAAA
IIIIIIIIIIIIIIIIIIIIIIIIIIIIIIIIIIIIIAIIIIIIIIIIIIIAAAAAAAAAAAAA
IIIIIIIIIIIIIIIIIIIIIIIIIIIIIIIIIIIIIAIIIIIIIIIIIIIAAAAIAAAAAAAA
IIIIIIIIIIIIIIIIIIIIIIIIIIIIIIIIIIIIIIIIIIIIIIIIIIIAAAAIAAAAAAAA
IIIIIIIIIIIIIIIIIIIIIIIIIIIIIIIIIIIIIIIIIIIIIIIIIIIAAAAIAAAAIAAA
IIIIIIIIIIIIIIIIIIIIIIIIIIIIIIIIIIIIIIIIIIIIIIIIIIIIAAAIAAAAIAAA
IIIIIIIIIIIIIIIIIIIIIIIIIIIIIIIIIIIIIIIIIIIIIIIIIIIIAAIIAAAAIAAA
IIIIIIIIIIIIIIIIIIIIIIIIIIIIIIIIIIIIIIIIIIIIIIIIIIIIAAIIIAAAIAAA
IIIIIIIIIIIIIIIIIIIIIIIIIIIIIIIIIIIIIIIIIIIIIIIIIIIIAIIIIAAAIAAA
IIIIIIIIIIIIIIIIIIIIIIIIIIIIIIIIIIIIIIIIIIIIIIIIIIIIAIIIIAAIIAAA
IIIIIIIIIIIIIIIIIIIIIIIIIIIIIIIIIIIIIIIIIIIIIIIIIIIIIIIIIAAIIAAA
IIIIIIIIIIIIIIIIIIIIIIIIIIIIIIIIIIIIIIIIIIIIIIIIIIIIIIIIIAAIIIAA
IIIIIIIIIIIIIIIIIIIIIIIIIIIIIIIIIIIIIIIIIIIIIIIIIIIIIIIIIAIIIIAA
IIIIIIIIIIIIIIIIIIIIIIIIIIIIIIIIIIIIIIIIIIIIIIIIIIIIIIIIIIIIIIAA
IIIIIIIIIIIIIIIIIIIIIIIIIIIIIIIIIIIIIIIIIIIIIIIIIIIIIIIIIIIIIIAI
IIIIIIIIIIIIIIIIIIIIIIIIIIIIIIIIIIIIIIIIIIIIIIIIIIIIIIIIIIIIIIII
[MLOP] Prefetch Degree Mean: 10.185
[MLOP] Prefetch Degree SD: 1.94035
[MLOP] Max Score Left Mean (%): 78.2898
[MLOP] Max Score Left SD (%): 3.97018
[MLOP] Max Score Right Mean (%): 96.7701
[MLOP] Max Score Right SD (%): 0.185419
CPU 0 L2C next line prefetcher final stats
LLC Next Line Prefetcher Final Stats: none

DRAM Statistics
 CHANNEL 0
 RQ ROW_BUFFER_HIT:     133112  ROW_BUFFER_MISS:     336410
 DBUS_CONGESTED:     587828
 WQ ROW_BUFFER_HIT:      74156  ROW_BUFFER_MISS:     278942  FULL:          0

 AVG_CONGESTED_CYCLE: 6
