
*** ChampSim Multicore Out-of-Order Simulator ***

Warmup Instructions: 1000000
Simulation Instructions: 10000000
Number of CPUs: 1
LLC sets: 2048
LLC ways: 16
Off-chip DRAM Size: 4096 MB Channels: 1 Width: 64-bit Data Rate: 3200 MT/s

CPU 0 runs /home/aniket/Desktop/sem/cs622/cs622-project/champsim/dpc3_traces/628.pop2_s-17B.champsimtrace.xz
CPU 0 L2C next line prefetcher
LLC Next Line Prefetcher

Warmup complete CPU 0 instructions: 1000002 cycles: 443528 (Simulation time: 0 hr 0 min 1 sec) 

Heartbeat CPU 0 instructions: 10000002 cycles: 7383428 heartbeat IPC: 1.35438 cumulative IPC: 1.29685 (Simulation time: 0 hr 0 min 17 sec) 
Finished CPU 0 instructions: 10000001 cycles: 7700317 cumulative IPC: 1.29865 (Simulation time: 0 hr 0 min 18 sec) 

CPU 0 Branch Prediction Accuracy: 97.0058% MPKI: 3.1961 Average ROB Occupancy at Mispredict: 177.905

ChampSim completed all CPUs

Region of Interest Statistics

CPU 0 cumulative IPC: 1.29865 instructions: 10000001 cycles: 7700317
L1D TOTAL     ACCESS:    2341677  HIT:    2037988  MISS:     303689
L1D LOAD      ACCESS:    1476030  HIT:    1455050  MISS:      20980
L1D RFO       ACCESS:     613782  HIT:     555693  MISS:      58089
L1D PREFETCH  ACCESS:     251865  HIT:      27245  MISS:     224620
L1D WRITEBACK ACCESS:          0  HIT:          0  MISS:          0
L1D PREFETCH  REQUESTED:     280356  ISSUED:     280356  USEFUL:     159259  USELESS:      85796
L1D AVERAGE MISS LATENCY: 46261.4 cycles
L1I TOTAL     ACCESS:    1971327  HIT:    1959512  MISS:      11815
L1I LOAD      ACCESS:    1971327  HIT:    1959512  MISS:      11815
L1I RFO       ACCESS:          0  HIT:          0  MISS:          0
L1I PREFETCH  ACCESS:          0  HIT:          0  MISS:          0
L1I WRITEBACK ACCESS:          0  HIT:          0  MISS:          0
L1I PREFETCH  REQUESTED:          0  ISSUED:          0  USEFUL:          0  USELESS:          0
L1I AVERAGE MISS LATENCY: 36.6159 cycles
L2C TOTAL     ACCESS:     411699  HIT:     288436  MISS:     123263
L2C LOAD      ACCESS:      29736  HIT:      14081  MISS:      15655
L2C RFO       ACCESS:      58055  HIT:      37523  MISS:      20532
L2C PREFETCH  ACCESS:     238089  HIT:     151014  MISS:      87075
L2C WRITEBACK ACCESS:      85819  HIT:      85818  MISS:          1
L2C PREFETCH  REQUESTED:      33027  ISSUED:      32489  USEFUL:       8235  USELESS:      84509
L2C AVERAGE MISS LATENCY: 67.0865 cycles
LLC TOTAL     ACCESS:     166530  HIT:     133508  MISS:      33022
LLC LOAD      ACCESS:      15191  HIT:      13995  MISS:       1196
LLC RFO       ACCESS:      20530  HIT:      18322  MISS:       2208
LLC PREFETCH  ACCESS:      93965  HIT:      64425  MISS:      29540
LLC WRITEBACK ACCESS:      36844  HIT:      36766  MISS:         78
LLC PREFETCH  REQUESTED:      16766  ISSUED:      16578  USEFUL:       1530  USELESS:      12566
LLC AVERAGE MISS LATENCY: 137.068 cycles
Major fault: 0 Minor fault: 1081
=== CPU 0 L1D Prefetcher Statistics ===
[MLOP] History of tracked zone:
IIIIIIIIIIIIIIIIIIIIIIIIIIIIIIIIIIIIIIIIIIIIIIIIIIIIIIIIIIIIIIII
IIIIIIIIIIIIIIIIIIIIIIIIA1IIIIIIIIIIIIIIIIIIIIIIIIIIIIIIIIIIIIII
IIIIIIIIIIIIIIIIIIAIIIIIA1IIIIIIIIIIIIIIIIIIIIIIIIIIIIIIIIIIIIII
IIIIIIIIIIIIIIIIIIAIIIIIAA1111IIIIIIIIIIIIIIIIIIIIIIIIIIIIIIIIII
IIIIIIIIIIIIIIIIIIA1111IAA1111IIIIIIIIIIIIIIIIIIIIIIIIIIIIIIIIII
IIIIIIIIIIIIIIIIIIA1111IAA11111IIIIIIIIIIIIIIIIIIIIIIIIIIIIIIIII
IIIIIIIIIIIIIIIIIIAA1111AA11111IIIIIIIIIIIIIIIIIIIIIIIIIIIIIIIII
IIIIIIIIIIIIIIIIIIAA1111AAA11111IIIIIIIIIIIIIIIIIIIIIIIIIIIIIIII
IIIIIIIIIIIIIIIIIIAAA111AAA11111IIIIIIIIIIIIIIIIIIIIIIIIIIIIIIII
IIIIIIIIIIIIIIIIIIAAA111AAAA11111IIIIIIIIIIIIIIIIIIIIIIIIIIIIIII
IIIIIIIIIIIIIIIIIIAAAA11AAAA11111IIIIIIIIIIIIIIIIIIIIIIIIIIIIIII
IIIIIIIIIIIIIIIIIIAAAA11AAAAA11111IIIIIIIIIIIIIIIIIIIIIIIIIIIIII
IIIIIIIIIIIIIIIIIIAAAAA1AAAAA11111IIIIIIIIIIIIIIIIIIIIIIIIIIIIII
IIIIIIIIIIIIIIIIIIAAAAA1AAAAAA11111IIIIIIIIIIIIIIIIIIIIIIIIIIIII
IIIIIIIIIIIIIIIIIIAAAAAAAAAAAA11111IIIIIIIIIIIIIIIIIIIIIIIIIIIII
IIIIIIIIIIIIIIIIIIAAAAAAAAAAAAA11111IIIIIIIIIIIIIIIIIIIIIIIIIIII
IIIIIIIIIIIIIIIIIIAAAAAAAAAAAAAA11111IIIIIIIIIIIIIIIIIIIIIIIIIII
IIIIIIIIIIIIIIIIIIAAAAAAAAAAAAAAA11111IIIIIIIIIIIIIIIIIIIIIIIIII
IIIIIIIIIIIIIIIIIIAAAAAAAAAAAAAAAA11111IIIIIIIIIIIIIIIIIIIIIIIII
IIIIIIIIIIIIIIIIIIAAAAAAAAAAAAAAAAA11111IIIIIIIIIIIIIIIIIIIIIIII
IIIIIIIIIIIIIIIIIIAAAAAAAAAAAAAAAAAA11111IIIIIIIIIIIIIIIIIIIIIII
IIIIIIIIIIIIIIIIIIAAAAAAAAAAAAAAAAAAA11111IIIIIIIIIIIIIIIIIIIIII
IIIIIIIIIIIIIIIIIIAAAAAAAAAAAAAAAAAAAA11111IIIIIIIIIIIIIIIIIIIII
IIIIIIIIIIIIIIIIIIAAAAAAAAAAAAAAAAAAAAA11111IIIIIIIIIIIIIIIIIIII
IIIIIIIIIIIIIIIIIIAAAAAAAAAAAAAAAAAAAAAA11111IIIIIIIIIIIIIIIIIII
IIIIIIIIIIIIIIIIIIAAAAAAAAAAAAAAAAAAAAAAA11111IIIIIIIIIIIIIIIIII
IIIIIIIIIIIIIIIIIIAAAAAAAAAAAAAAAAAAAAAAAA11111IIIIIIIIIIIIIIIII
IIIIIIIIIIIIIIIIIIAAAAAAAAAAAAAAAAAAAAAAAAA11111IIIIIIIIIIIIIIII
IIIIIIIIIIIIIIIIIIAAAAAAAAAAAAAAAAAAAAAAAAAA11111IIIIIIIIIIIIIII
IIIIIIIIIIIIIIIIIIAAAAAAAAAAAAAAAAAAAAAAAAAAA11111IIIIIIIIIIIIII
IIIIIIIIIIIIIIIIIIAAAAAAAAAAAAAAAAAAAAAAAAAAAA11111IIIIIIIIIIIII
IIIIIIIIIIIIIIIIIIAAAAAAAAAAAAAAAAAAAAAAAAAAAAA11111IIIIIIIIIIII
IIIIIIIIIIIIIIIIIIAAAAAAAAAAAAAAAAAAAAAAAAAAAAAA11111IIIIIIIIIII
IIIIIIIIIIIIIIIIIIAAAAAAAAAAAAAAAAAAAAAAAAAAAAAAA11111IIIIIIIIII
IIIIIIIIIIIIIIIIIIAAAAAAAAAAAAAAAAAAAAAAAAAAAAAAAA11111IIIIIIIII
IIIIIIIIIIIIIIIIIIAAAAAAAAAAAAAAAAAAAAAAAAAAAAAAAAA11111IIIIIIII
IIIIIIIIIIIIIIIIIIAAAAAAAAAAAAAAAAAAAAAAAAAAAAAAAAAA11111IIIIIII
IIIIIIIIIIIIIIIIIIAAAAAAAAAAAAAAAAAAAAAAAAAAAAAAAAAA111111IIIIII
IIIIIIIIIIIIIIIIIIAAAAAAAAAAAAAIAAAAAAAAAAAAAAAAAAAA111111IIIIII
IIIIIIIIIIIIIIIIIIAAAAAAAAAAAAAIIAAAAAAAAAAAAAAAAAAA111111IIIIII
IIIIIIIIIIIIIIIIIIAAAAAAAAAAAAAIIIAAAAAAAAAAAAAAAAAA111111IIIIII
IIIIIIIIIIIIIIIIIIAAAIAAAAAAAAAIIIAAAAAAAAAAAAAAAAAA111111IIIIII
IIIIIIIIIIIIIIIIIIAAAIAAAAAAAAIIIIAAAAAAAAAAAAAAAAAA111111IIIIII
IIIIIIIIIIIIIIIIIIAIAIAAAAAAAAIIIIAAAAAAAAAAAAAAAAAA111111IIIIII
IIIIIIIIIIIIIIIIIIAIIIAAAAAAAAIIIIAAAAAAAAAAAAAAAAAA111111IIIIII
IIIIIIIIIIIIIIIIIIAIIIAAAAAAAAIIIIIAAAAAAAAAAAAAAAAA111111IIIIII
IIIIIIIIIIIIIIIIIIAIIIAAAAAAAAIIIIIIAAAAAAAAAAAAAAAA111111IIIIII
IIIIIIIIIIIIIIIIIIAIIIAAAAAAAA1IIIIIAAAAAAAAAAAAAAAA111111IIIIII
IIIIIIIIIIIIIIIIIIAIIIAAAIAAAA1IIIIIAAAAAAAAAAAAAAAA111111IIIIII
IIIIIIIIIIIIIIIIIIAIIIAAAAAAAA11IIIIAAAAAAAAAAAAAAAA111111IIIIII
IIIIIIIIIIIIIIIIIIAIIIAAAAAIAA11IIIIAAAAAAAAAAAAAAAA111111IIIIII
IIIIIIIIIIIIIIIIIIAIIIAAAAAIIA11IIIIAAAAAAAAAAAAAAAA111111IIIIII
IIIIIIIIIIIIIIIIIIAIIIAAAAAIII11IIIIAAAAAAAAAAAAAAAA111111IIIIII
IIIIIIIIIIIIIIIIIIAIIIAAAAIIII11IIIIAAAAAAAAAAAAAAAA111111IIIIII
IIIIIIIIIIIIIIIIIIAIIIIAAAIIII11IIIIAAAAAAAAAAAAAAAA111111IIIIII
IIIIIIIIIIIIIIIIIIAIIIIIAAIIII11IIIIAAAAAAAAAAAAAAAA111111IIIIII
IIIIIIIIIIIIIIIIIIAIIIIIAA11II11IIIIAAAAAAAAAAAAAAAA111111IIIIII
IIIIIIIIIIIIIIIIIIAIIIIIAA11II11IIIIIAAAAAAAAAAAAAAA111111IIIIII
IIIIIIIIIIIIIIIIIIA1IIIIAA11II11IIIIIAAAAAAAAAAAAAAA111111IIIIII
IIIIIIIIIIIIIIIIIIAAIIIIAA11II11IIIIIAAAAAAAAAAAAAAA111111IIIIII
IIIIIIIIIIIIIIIIIIAAIIIIAAA1II11IIIIIAAAAAAAAAAAAAAA111111IIIIII
IIIIIIIIIIIIIIIIIIAA1111AAA1II11IIIIIAAAAAAAAAAAAAAA111111IIIIII
IIIIIIIIIIIIIIIIIIAA1111AAA11I11IIIIIAAAAAAAAAAAAAAA111111IIIIII
IIIIIIIIIIIIIIIIIIAA1111AAA111111IIIIAAAAAAAAAAAAAAA111111IIIIII
IIIIIIIIIIIIIIIIIIAAA111AAA111111IIIIAAAAAAAAAAAAAAA111111IIIIII
IIIIIIIIIIIIIIIIIIAAA111AAAA111111IIIAAAAAAAAAAAAAAA111111IIIIII
IIIIIIIIIIIIIIIIIIAAAA11AAAA111111IIIAAAAAAAAAAAAAAA111111IIIIII
IIIIIIIIIIIIIIIIIIAAAA11AAAAA111111IIAAAAAAAAAAAAAAA111111IIIIII
IIIIIIIIIIIIIIIIIIAAAAA1AAAAA111111IIAAAAAAAAAAAAAAA111111IIIIII
IIIIIIIIIIIIIIIIIIAAAAA1AAAAAA111111IAAAAAAAAAAAAAAA111111IIIIII
IIIIIIIIIIIIIIIIIIAAAAAAAAAAAA111111IAAAAAAAAAAAAAAA111111IIIIII
IIIIIIIIIIIIIIIIIIAAAAAAAAAAAAA111111AAAAAAAAAAAAAAA111111IIIIII
IIIIIIIIIIIIIIIIIIAAAAAAAAAAAAAA11111AAAAAAAAAAAAAAA111111IIIIII
IIIIIIIIIIIIIIIIIIAAAAAAAAAAAAAAA1111AAAAAAAAAAAAAAA111111IIIIII
IIIIIIIIIIIIIIIIIIAAAAAAAAAAAAAAA1111IAAAAAAAAAAAAAA111111IIIIII
IIIIIIIIIIIIIIIIIIAAAAAAAAAAAAAAA11111AAAAAAAAAAAAAA111111IIIIII
IIIIIIIIIIIIIIIIIIAAAAAAAAAAAAAAAA1111AAAAAAAAAAAAAA111111IIIIII
IIIIIIIIIIIIIIIIIIAAAAAAAAAAAAAAAAA111AAAAAAAAAAAAAA111111IIIIII
IIIIIIIIIIIIIIIIIIAAAAAAAAAAAAAAAAAA11AAAAAAAAAAAAAA111111IIIIII
IIIIIIIIIIIIIIIIIIAAAAAAAAAAAAAAAAAA11IAAAAAAAAAAAAA111111IIIIII
IIIIIIIIIIIIIIIIIIAAAAAAAAAAAAAAAAAAA11AAAAAAAAAAAAA111111IIIIII
IIIIIIIIIIIIIIIIIIAAAAAAAAAAAAAAAAAAA11IAAAAAAAAAAAA111111IIIIII
IIIIIIIIIIIIIIIIIIAAAAAAAAAAAAAAAAAAA111AAAAAAAAAAAA111111IIIIII
IIIIIIIIIIIIIIIIIIAAAAAAAAAAAAAAAAAAAA11AAAAAAAAAAAA111111IIIIII
IIIIIIIIIIIIIIIIIIAAAAAAAAAAAAAAAAAAAAA1AAAAAAAAAAAA111111IIIIII
IIIIIIIIIIIIIIIIIIAAAAAAAAAAAAAAAAAAAAA1AAAAAAAAAAAA1I1111IIIIII
IIIIIIIIIIIIIIIIIIAAAAAAAAAAAAAAAAAAAAAAAAAAAAAAAAAA1I1111IIIIII
IIIIIIIIIIIIIIIIIIAAAAAAAAAAAAAAAAAAAAAAAAAAAAAAAAAA1II111IIIIII
IIIIIIIIIIIIIIIIIIAAAAAAAAAAAAAAAAAAAAAAAAAAAAAAAAAA1III11IIIIII
IIIIIIIIIIIIIIIIIIAAAAAAAAAAAAAAAAAAAAAAAAAAAAAAAAAA1IIII1IIIIII
IIIIIIIIIIIIIIIIIIAAAAAAAAAAAAAAAAAAAAAAAAAAAAAAAAAA11III1IIIIII
IIIIIIIIIIIIIIIIIIAAAAAAAAAAAAAAAAAAAAAAAAAAAAAAAAAAI1III1IIIIII
IIIIIIIIIIIIIIIIIIAAAAAAAAAAAAAAAAAAAAAAAAAAAAAAAAAA11III1IIIIII
IIIIIIIIIIIIIIIIIIAAAAAAAAAAAAAAAAAAAAAAAAAAAAAAAAAA111II1IIIIII
IIIIIIIIIIIIIIIIIIAAAAAAAAAAAAAAAAAAAAAAAAAAAAAAAAAA1111I1IIIIII
IIIIIIIIIIIIIIIIIIAAAAAAAAAAAAAAAAAAAAAAAAAAAAAAAAAA111111IIIIII
IIIIIIIIIIIIIIIIIIAAIAAAAAAAAAAAAAAAAAAAAAAAAAAAAAAA111111IIIIII
IIIIIIIIIIIIIIIIIIAIIAAAAAAAAAAAAAAAAAAAAAAAAAAAAAAA111111IIIIII
IIIIIIIIIIIIIIIIIIAIIIAAAAAAAAAAAAAAAAAAAAAAAAAAAAAA111111IIIIII
IIIIIIIIIIIIIIIIIIIIIIAAAAAAAAAAAAAAAAAAAAAAAAAAAAAA111111IIIIII
IIIIIIIIIIIIIIIIIIIIIIIAAAAAAAAAAAAAAAAAAAAAAAAAAAAA111111IIIIII
IIIIIIIIIIIIIIIIIIIIIIIIAAAAAAAAAAAAAAAAAAAAAAAAAAAA111111IIIIII
IIIIIIIIIIIIIIIIIIIIIIIIIAAAAAAAAAAAAAAAAAAAAAAAAAAA111111IIIIII
IIIIIIIIIIIIIIIIIIIIIIIIIIAAAAAAAAAAAAAAAAAAAAAAAAAA111111IIIIII
IIIIIIIIIIIIIIIIIIIIIIIIIIIAAAAAAAAAAAAAAAAAAAAAAAAA111111IIIIII
IIIIIIIIIIIIIIIIIIIIIIIIIIIIAAAAAAAAAAAAAAAAAAAAAAAA111111IIIIII
IIIIIIIIIIIIIIIIIIIIIIIIIIIIIAAAAAAAAAAAAAAAAAAAAAAA111111IIIIII
IIIIIIIIIIIIIIIIIIIIIIIIIIIIIIAAAAAAAAAAAAAAAAAAAAAA111111IIIIII
IIIIIIIIIIIIIIIIIIIIIIIIIIIIIIAAAAAAAAAAAAAAAAAAAAAA11111IIIIIII
IIIIIIIIIIIIIIIIIIIIIIIIAIIIIIAAAAAAAAAAAAAAAAAAAAAA11111IIIIIII
IIIIIIIIIIIIIIIIIIAIIIIIAIIIIIAAAAAAAAAAAAAAAAAAAAAA11111IIIIIII
IIIIIIIIIIIIIIIIIIAIIIIIAAIIIIAAAAAAAAAAAAAAAAAAAAAA11111IIIIIII
IIIIIIIIIIIIIIIIIIAIIIIIAAIIIIIAAAAAAAAAAAAAAAAAAAAA11111IIIIIII
IIIIIIIIIIIIIIIIIIA11111AAIIIIIAAAAAAAAAAAAAAAAAAAAA11111IIIIIII
IIIIIIIIIIIIIIIIIIA11111AA1111IAAAAAAAAAAAAAAAAAAAAA11111IIIIIII
IIIIIIIIIIIIIIIIIIAA1111AA1111IAAAAAAAAAAAAAAAAAAAAA11111IIIIIII
IIIIIIIIIIIIIIIIIIAA1111AAA111IAAAAAAAAAAAAAAAAAAAAA11111IIIIIII
IIIIIIIIIIIIIIIIIIAA1111AAA111IIAAAAAAAAAAAAAAAAAAAA11111IIIIIII
IIIIIIIIIIIIIIIIIIAA1111AAA11111AAAAAAAAAAAAAAAAAAAA11111IIIIIII
IIIIIIIIIIIIIIIIIIAAA111AAA11111AAAAAAAAAAAAAAAAAAAA11111IIIIIII
IIIIIIIIIIIIIIIIIIAAA111AAA11111IAAAAAAAAAAAAAAAAAAA11111IIIIIII
IIIIIIIIIIIIIIIIIIAAA111AAAA11111AAAAAAAAAAAAAAAAAAA11111IIIIIII
IIIIIIIIIIIIIIIIIIAAA111AAAA11111IAAAAAAAAAAAAAAAAAA11111IIIIIII
IIIIIIIIIIIIIIIIIIAAA111AAAA111111AAAAAAAAAAAAAAAAAA11111IIIIIII
IIIIIIIIIIIIIIIIIIAAAA11AAAA111111AAAAAAAAAAAAAAAAAA11111IIIIIII
IIIIIIIIIIIIIIIIIIAAAA11AAAAA11111AAAAAAAAAAAAAAAAAA11111IIIIIII
IIIIIIIIIIIIIIIIIIAAAA11AAAAA11111IAAAAAAAAAAAAAAAAA11111IIIIIII
IIIIIIIIIIIIIIIIIIAAAAA1AAAAA11111IAAAAAAAAAAAAAAAAA11111IIIIIII
IIIIIIIIIIIIIIIIIIAAAAA1AAAAAA11111AAAAAAAAAAAAAAAAA11111IIIIIII
IIIIIIIIIIIIIIIIIIAAAAAAAAAAAA11111AAAAAAAAAAAAAAAAA11111IIIIIII
IIIIIIIIIIIIIIIIIIAAAAAAAAAAAA11111IAAAAAAAAAAAAAAAA11111IIIIIII
IIIIIIIIIIIIIIIIIIAAAAAAAAAAAAA11111AAAAAAAAAAAAAAAA11111IIIIIII
IIIIIIIIIIIIIIIIIIAAAAAAAAAAAAA11111IAAAAAAAAAAAAAAA11111IIIIIII
IIIIIIIIIIIIIIIIIIAAAAAAAAAAAAAA11111AAAAAAAAAAAAAAA11111IIIIIII
IIIIIIIIIIIIIIIIIIAAAAAAAAAAAAAAA1111AAAAAAAAAAAAAAA11111IIIIIII
IIIIIIIIIIIIIIIIIIAAAAAAAAAAAAAAAA111AAAAAAAAAAAAAAA11111IIIIIII
IIIIIIIIIIIIIIIIIIAAAAAAAAAAAAAAAAA11AAAAAAAAAAAAAAA11111IIIIIII
IIIIIIIIIIIIIIIIIIAAAAAAAAAAAAAAAAAA1AAAAAAAAAAAAAAA11111IIIIIII
IIIIIIIIIIIIIIIIIIAAAAAAAAAAAAAAAAAAAAAAAAAAAAAAAAAA11111IIIIIII
IIIIIIIIIIIIIIIIIIAAAAAAAAAAAAAAAAAAAAAAAAAAAAAAAAAAI1111IIIIIII
IIIIIIIIIIIIIIIIIIAAAAAAAAAAAAAAAAAAAAAAAAAAAAAAAAAAII111IIIIIII
IIIIIIIIIIIIIIIIIIAAAAAAAAAAAAAAAAAAAAAAAAAAAAAAAAAAII1I1IIIIIII
IIIIIIIIIIIIIIIIIIAAAAAAAAAAAAAAAAAAAAAAAAAAAAAAAAAAII1IIIIIIIII
IIIIIIIIIIIIIIIIIIAAAAAAAAAAAAAAAAAAAAAAAAAAAAAAAAIAII1IIIIIIIII
IIIIIIIIIIIIIIIIIIAAAAAAAAAAAAAAAAAAAAAAAAAAAAAAAA1AII1IIIIIIIII
IIIIIIIIIIIIIIIIIIAAAAAAAAAAAAAAAAAAAAAAAAAAAAAAAA1III1IIIIIIIII
IIIIIIIIIIIIIIIIIIAAAAAAAAAAAAAAAAAAAAAAAAAAAAAAAA111I1IIIIIIIII
IIIIIIIIIIIIIIIIIIAAAAAAAAAAAAAAAAAAAAAAAAAAAAAAAA11111IIIIIIIII
IIIIIIIIIIIIIIIIIIAAAAAAAAAAAAAAAAAAAAAAAAAAAAAAAI11111IIIIIIIII
IIIIIIIIIIIIIIIIIIAAAAAAAAAAAAAAAAAAAAAAAAAAAAAAA111111IIIIIIIII
IIIIIIIIIIIIIIIIIIAAAAAAAAAAAAAAAAAAAAAAAAAAAAAAAA111111IIIIIIII
IIIIIIIIIIIIIIIIIIAAAAAAAAAAAAAAAAAAAAAAAAAAAAAAAAA111111IIIIIII
IIIIIIIIIIIIIIIIIIAAAAAAAAAAAAAAAAAAAAAAAAAAAAAAAAAA111111IIIIII
IIIIIIIIIIIIIIIIIIAAAAAAAAAAAAAAAAAAAAAAAAAAAAAAAAAA11I111IIIIII
IIIIIIIIIIIIIIIIIIAAAAAAAAAAAAAAAAAAAAAAAAAAAAAAAAAA111111IIIIII
IIIIIIIIIIIIIIIIIIAIAAAAAAAAAAAAAAAAAAAAAAAAAAAAAAAA111111IIIIII
IIIIIIIIIIIIIIIIIIAIAAAAAAAAAAAAAAAAAAAAAAAAAAAAAAAAI11111IIIIII
IIIIIIIIIIIIIIIIIIAIAAAAAAAAAAAAAAAAAAAAAAAAAAAAAAAAII1111IIIIII
IIIIIIIIIIIIIIIIIIAIAAAAAAAAAAAAAAAAAAAAAAAAAAAAAAAAII1I11IIIIII
IIIIIIIIIIIIIIIIIIAIAAAAAAAAAAAAAAAAAAAAAAAAAAAAAAAAII1II1IIIIII
IIIIIIIIIIIIIIIIIIIIAAAAAAAAAAAAAAAAAAAAAAAAAAAAAAAAII1II1IIIIII
IIIIIIIIIIIIIIIIIIIIIAAAAAAAAAAAAAAAAAAAAAAAAAAAAAAAII1II1IIIIII
IIIIIIIIIIIIIIIIIIIIIIAAAAAAAAAAAAAAAAAAAAAAAAAAAAAAII1II1IIIIII
IIIIIIIIIIIIIIIIIIIIIIAAAAAAAAAAAAAAAAAAAAAAAAAAAAAAII1IIIIIIIII
IIIIIIIIIIIIIIIIIIIIIIIAAAAAAAAAAAAAAAAAAAAAAAAAAAAAII1IIIIIIIII
IIIIIIIIIIIIIIIIIIIIIIIIAAAAAAAAAAAAAAAAAAAAAAAAAAAAII1IIIIIIIII
IIIIIIIIIIIIIIIIIIIIIIIIIAAAAAAAAAAAAAAAAAAAAAAAAAAAII1IIIIIIIII
IIIIIIIIIIIIIIIIIIIIIIIIIIAAAAAAAAAAAAAAAAAAAAAAAAAAII1IIIIIIIII
IIIIIIIIIIIIIIIIIIIIIIIIIIAIAAAAAAAAAAAAAAAAAAAAAAAAII1IIIIIIIII
IIIIIIIIIIIIIIIIIIIIIIIIIIAIIAAAAAAAAAAAAAAAAAAAAAAAII1IIIIIIIII
IIIIIIIIIIIIIIIIIIIIIIIIIIAIIIAAAAAAAAAAAAAAAAAAAAAAII1IIIIIIIII
IIIIIIIIIIIIIIIIIIIIIIIIIIAIIIAIAAAAAAAAAAAAAAAAAAAAII1IIIIIIIII
IIIIIIIIIIIIIIIIIIIIIIIIIIAIIIAIIAAAAAAAAAAAAAAAAAAAII1IIIIIIIII
IIIIIIIIIIIIIIIIIIIIIIIIIIAIIIAIIIAAAAAAAAAAAAAAAAAAII1IIIIIIIII
IIIIIIIIIIIIIIIIIIIIIIIIIIAIIIAIIIAAAAAAAAAAAIAAAAAAII1IIIIIIIII
IIIIIIIIIIIIIIIIIIIIIIIIIIAIIIAIIIAAAAAAAAAAAIIAAAAAII1IIIIIIIII
IIIIIIIIIIIIIIIIIIIIIIIIIIIIIIAIIIAAAAAAAAAAAIIAAAAAII1IIIIIIIII
IIIIIIIIIIIIIIIIIIIIIIIIIIIIIIAIIIIAAAAAAAAAAIIAAAAAII1IIIIIIIII
IIIIIIIIIIIIIIIIIIIIIIIIIIIIIIAIIIIIAAAAAAAAAIIAAAAAII1IIIIIIIII
IIIIIIIIIIIIIIIIIIIIIIIIIIIIIIAIIIIIAAAAAAAAAIIAAAAAIIIIIIIIIIII
IIIIIIIIIIIIIIIIIIIIIIIIIIIIIIAIIIIIAAAAAAAAAIIAAIAAIIIIIIIIIIII
IIIIIIIIIIIIIIIIIIIIIIIIIIIIIIAIIIIIAAAAAAAAAIIAAIAIIIIIIIIIIIII
IIIIIIIIIIIIIIIIIIIIIIIIIIIIIIIIIIIIAAAAAAAAAIIAAIAIIIIIIIIIIIII
IIIIIIIIIIIIIIIIIIIIIIIIIIIIIIIIIIIIIAAAAAAAAIIAAIAIIIIIIIIIIIII
IIIIIIIIIIIIIIIIIIIIIIIIIIIIIIIIIIIIIIAAAAAAAIIAAIAIIIIIIIIIIIII
IIIIIIIIIIIIIIIIIIIIIIIIIIIIIIIIIIIIIIIAAAAAAIIAAIAIIIIIIIIIIIII
IIIIIIIIIIIIIIIIIIIIIIIIIIIIIIIIIIIIIIIIAAAAAIIAAIAIIIIIIIIIIIII
IIIIIIIIIIIIIIIIIIIIIIIIIIIIIIIIIIIIIIIIAAAAAIIAAIIIIIIIIIIIIIII
IIIIIIIIIIIIIIIIIIIIIIIIIIIIIIIIIIIIIIIIIAAAAIIAAIIIIIIIIIIIIIII
IIIIIIIIIIIIIIIIIIIIIIIIIIIIIIIIIIIIIIIIIAAAAIIIAIIIIIIIIIIIIIII
IIIIIIIIIIIIIIIIIIIIIIIIIIIIIIIIIIIIIIIIIAAAAIIIIIIIIIIIIIIIIIII
IIIIIIIIIIIIIIIIIIIIIIIIIIIIIIIIIIIIIIIIIIAAAIIIIIIIIIIIIIIIIIII
IIIIIIIIIIIIIIIIIIIIIIIIIIIIIIIIIIIIIIIIIIIAAIIIIIIIIIIIIIIIIIII
IIIIIIIIIIIIIIIIIIIIIIIIIIIIIIIIIIIIIIIIIIIIAIIIIIIIIIIIIIIIIIII
IIIIIIIIIIIIIIIIIIIIIIIIIIIIIIIIIIIIIIIIIIIIIIIIIIIIIIIIIIIIIIII
[MLOP] Prefetch Degree Mean: 7.16763
[MLOP] Prefetch Degree SD: 1.83123
[MLOP] Max Score Left Mean (%): 68.241
[MLOP] Max Score Left SD (%): 9.46617
[MLOP] Max Score Right Mean (%): 94.3532
[MLOP] Max Score Right SD (%): 4.68111
CPU 0 L2C next line prefetcher final stats
LLC Next Line Prefetcher Final Stats: none

DRAM Statistics
 CHANNEL 0
 RQ ROW_BUFFER_HIT:      18794  ROW_BUFFER_MISS:      14151
 DBUS_CONGESTED:      11277
 WQ ROW_BUFFER_HIT:        936  ROW_BUFFER_MISS:       2922  FULL:          0

 AVG_CONGESTED_CYCLE: 6
